  
       XFOIL         Version 6.99
  
 Calculated polar for: Profile32_12                                    
  
 1 1 Reynolds number fixed          Mach number fixed         
  
 xtrf =   1.000 (top)        1.000 (bottom)  
 Mach =   0.000     Re =     9.800 e 6     Ncrit =   9.000
  
   alpha    CL        CD       CDp       CM     Top_Xtr  Bot_Xtr
  ------ -------- --------- --------- -------- -------- --------
  -9.000  -0.1637   0.00874   0.00499  -0.1593   0.4979   0.2925
  -8.500  -0.0912   0.00830   0.00451  -0.1638   0.4818   0.3017
  -8.000  -0.0201   0.00792   0.00411  -0.1679   0.4692   0.3135
  -7.500   0.0474   0.00773   0.00386  -0.1708   0.4539   0.3187
  -7.000   0.1145   0.00755   0.00363  -0.1736   0.4390   0.3261
  -6.500   0.1810   0.00739   0.00341  -0.1763   0.4230   0.3327
  -6.000   0.2473   0.00721   0.00321  -0.1788   0.4149   0.3422
  -5.500   0.3122   0.00710   0.00306  -0.1809   0.4035   0.3494
  -5.000   0.3763   0.00703   0.00296  -0.1827   0.3955   0.3571
  -4.500   0.4399   0.00697   0.00287  -0.1844   0.3853   0.3648
  -4.000   0.5021   0.00699   0.00284  -0.1857   0.3765   0.3704
  -3.500   0.5645   0.00697   0.00280  -0.1871   0.3662   0.3793
  -3.000   0.6249   0.00708   0.00284  -0.1879   0.3549   0.3822
  -2.500   0.6863   0.00710   0.00285  -0.1890   0.3473   0.3909
  -2.000   0.7457   0.00722   0.00292  -0.1896   0.3342   0.3971
  -1.500   0.8056   0.00731   0.00298  -0.1903   0.3275   0.4025
  -1.000   0.8644   0.00743   0.00306  -0.1908   0.3167   0.4099
  -0.500   0.9236   0.00753   0.00315  -0.1913   0.3123   0.4136
  -0.000   0.9807   0.00772   0.00328  -0.1914   0.3024   0.4165
   0.500   1.0389   0.00781   0.00337  -0.1916   0.2982   0.4242
   1.000   1.0955   0.00796   0.00351  -0.1916   0.2919   0.4290
   1.500   1.1500   0.00820   0.00369  -0.1911   0.2800   0.4310
   2.000   1.2040   0.00843   0.00387  -0.1906   0.2713   0.4391
   2.500   1.2571   0.00859   0.00403  -0.1898   0.2663   0.4452
   3.000   1.3029   0.00879   0.00424  -0.1876   0.2625   0.4475
   3.500   1.3539   0.00913   0.00453  -0.1865   0.2522   0.4534
   4.000   1.4065   0.00941   0.00480  -0.1857   0.2468   0.4595
   4.500   1.4569   0.00979   0.00514  -0.1845   0.2363   0.4632
   5.000   1.5073   0.01016   0.00548  -0.1834   0.2296   0.4656
   5.500   1.5576   0.01054   0.00583  -0.1822   0.2215   0.4729
   6.000   1.6054   0.01102   0.00627  -0.1806   0.2115   0.4775
   6.500   1.6529   0.01151   0.00672  -0.1791   0.2024   0.4803
   7.000   1.6988   0.01207   0.00722  -0.1772   0.1919   0.4820
   7.500   1.7422   0.01273   0.00783  -0.1750   0.1801   0.4891
   8.000   1.7840   0.01345   0.00850  -0.1726   0.1686   0.4936
   8.500   1.8239   0.01426   0.00925  -0.1699   0.1568   0.4967
   9.000   1.8631   0.01509   0.01004  -0.1672   0.1491   0.4982
   9.500   1.9054   0.01577   0.01072  -0.1650   0.1445   0.5015
  10.000   1.9407   0.01677   0.01169  -0.1617   0.1345   0.5083
  10.500   1.9722   0.01796   0.01284  -0.1580   0.1244   0.5129
  11.000   1.9983   0.01943   0.01424  -0.1537   0.1121   0.5150
  11.500   2.0249   0.02091   0.01567  -0.1495   0.1023   0.5159
  12.000   2.0460   0.02270   0.01742  -0.1448   0.0923   0.5189
  12.500   2.0691   0.02450   0.01921  -0.1405   0.0855   0.5248
  13.000   2.0909   0.02644   0.02116  -0.1364   0.0796   0.5291
  13.500   2.1089   0.02872   0.02344  -0.1320   0.0737   0.5317
  14.000   2.1216   0.03153   0.02625  -0.1275   0.0676   0.5331
  14.500   2.1327   0.03468   0.02941  -0.1233   0.0622   0.5338
  15.000   2.1416   0.03848   0.03325  -0.1199   0.0586   0.5393
  15.500   2.1480   0.04284   0.03768  -0.1171   0.0551   0.5444
  16.000   2.1451   0.04832   0.04322  -0.1144   0.0515   0.5476
  16.500   2.1445   0.05370   0.04867  -0.1124   0.0494   0.5500
  17.000   2.1302   0.06056   0.05562  -0.1104   0.0463   0.5512
  17.500   2.1169   0.06754   0.06270  -0.1090   0.0448   0.5519
  18.000   2.0908   0.07610   0.07138  -0.1080   0.0424   0.5538
  18.500   2.0747   0.08362   0.07900  -0.1075   0.0408   0.5582
  19.000   2.0442   0.09303   0.08853  -0.1076   0.0391   0.5614
  19.500   2.0222   0.10145   0.09707  -0.1080   0.0371   0.5642
  20.000   1.9948   0.11076   0.10650  -0.1093   0.0360   0.5664
  20.500   1.9716   0.11953   0.11537  -0.1109   0.0343   0.5682
  21.000   1.9566   0.12738   0.12331  -0.1129   0.0331   0.5695
  21.500   1.9415   0.13528   0.13129  -0.1153   0.0319   0.5702
  22.000   1.9250   0.14342   0.13952  -0.1183   0.0302   0.5719
  22.500   1.9149   0.15078   0.14697  -0.1214   0.0292   0.5765
  23.000   1.9036   0.15837   0.15464  -0.1251   0.0280   0.5804
  23.500   1.8924   0.16597   0.16231  -0.1292   0.0264   0.5834
  24.000   1.8966   0.17113   0.16752  -0.1320   0.0257   0.5861
  24.500   1.8864   0.17856   0.17503  -0.1367   0.0244   0.5877
  25.000   1.8782   0.18574   0.18228  -0.1414   0.0231   0.5886
