  
       XFOIL         Version 6.99
  
 Calculated polar for: Profile42                                       
  
 1 1 Reynolds number fixed          Mach number fixed         
  
 xtrf =   1.000 (top)        1.000 (bottom)  
 Mach =   0.000     Re =     9.800 e 6     Ncrit =   9.000
  
   alpha    CL        CD       CDp       CM     Top_Xtr  Bot_Xtr
  ------ -------- --------- --------- -------- -------- --------
  -9.000  -0.8016   0.01045   0.00544  -0.0490   0.5356   0.0102
  -8.500  -0.7429   0.00990   0.00485  -0.0504   0.5167   0.0126
  -8.000  -0.6839   0.00952   0.00444  -0.0516   0.5005   0.0135
  -7.500  -0.6249   0.00906   0.00400  -0.0527   0.4945   0.0182
  -7.000  -0.5659   0.00867   0.00362  -0.0537   0.4843   0.0233
  -6.500  -0.5068   0.00829   0.00328  -0.0547   0.4799   0.0307
  -6.000  -0.4479   0.00798   0.00297  -0.0555   0.4655   0.0402
  -5.500  -0.3902   0.00743   0.00255  -0.0563   0.4561   0.0758
  -4.500  -0.2771   0.00632   0.00178  -0.0573   0.4376   0.1821
  -4.000  -0.2232   0.00565   0.00137  -0.0572   0.4289   0.2639
  -3.500  -0.1692   0.00506   0.00105  -0.0570   0.4241   0.3461
  -3.000  -0.1106   0.00491   0.00096  -0.0575   0.4149   0.3749
  -2.500  -0.0514   0.00483   0.00090  -0.0580   0.4032   0.3985
  -2.000   0.0089   0.00479   0.00088  -0.0587   0.3987   0.4112
  -1.500   0.0693   0.00479   0.00087  -0.0595   0.3903   0.4230
  -1.000   0.1302   0.00480   0.00087  -0.0603   0.3880   0.4279
  -0.500   0.1909   0.00484   0.00089  -0.0611   0.3789   0.4346
  -0.000   0.2520   0.00486   0.00091  -0.0620   0.3754   0.4416
   0.500   0.3130   0.00490   0.00094  -0.0629   0.3706   0.4484
   1.000   0.3742   0.00494   0.00097  -0.0638   0.3655   0.4528
   1.500   0.4356   0.00498   0.00101  -0.0648   0.3641   0.4556
   2.000   0.4966   0.00507   0.00108  -0.0657   0.3532   0.4614
   2.500   0.5580   0.00513   0.00113  -0.0667   0.3493   0.4654
   3.000   0.6190   0.00522   0.00121  -0.0677   0.3432   0.4680
   3.500   0.6802   0.00532   0.00129  -0.0687   0.3345   0.4731
   4.000   0.7417   0.00543   0.00139  -0.0698   0.3265   0.4784
   4.500   0.8024   0.00560   0.00152  -0.0708   0.3129   0.4816
   5.000   0.8637   0.00568   0.00161  -0.0718   0.3105   0.4833
   5.500   0.9230   0.00604   0.00184  -0.0727   0.2826   0.4865
   6.000   0.9836   0.00628   0.00204  -0.0738   0.2678   0.4911
   6.500   1.0410   0.00691   0.00247  -0.0745   0.2229   0.4957
   7.500   1.1568   0.00792   0.00321  -0.0760   0.1684   0.5000
   8.000   1.2122   0.00880   0.00385  -0.0767   0.1228   0.5046
   8.500   1.2702   0.00937   0.00433  -0.0776   0.1029   0.5088
   9.000   1.3230   0.01039   0.00512  -0.0779   0.0651   0.5108
   9.500   1.3791   0.01095   0.00562  -0.0785   0.0549   0.5119
  10.000   1.4334   0.01179   0.00634  -0.0791   0.0384   0.5154
  10.500   1.4902   0.01239   0.00692  -0.0801   0.0330   0.5205
  11.000   1.5457   0.01306   0.00756  -0.0809   0.0284   0.5238
  11.500   1.6001   0.01382   0.00828  -0.0817   0.0238   0.5258
  12.000   1.6521   0.01454   0.00900  -0.0820   0.0218   0.5270
  12.500   1.6993   0.01552   0.00996  -0.0819   0.0175   0.5330
  13.000   1.7418   0.01650   0.01095  -0.0809   0.0160   0.5377
  13.500   1.7698   0.01802   0.01249  -0.0786   0.0135   0.5401
  14.000   1.7974   0.02004   0.01453  -0.0772   0.0120   0.5431
  14.500   1.8284   0.02215   0.01670  -0.0768   0.0123   0.5492
  15.000   1.8491   0.02534   0.01994  -0.0763   0.0107   0.5529
  15.500   1.8692   0.02867   0.02332  -0.0760   0.0104   0.5548
  16.000   1.8792   0.03304   0.02776  -0.0755   0.0092   0.5599
  16.500   1.8881   0.03754   0.03234  -0.0752   0.0092   0.5645
  17.000   1.8808   0.04368   0.03856  -0.0747   0.0077   0.5678
  17.500   1.8795   0.04949   0.04447  -0.0746   0.0076   0.5722
  18.000   1.8689   0.05657   0.05165  -0.0748   0.0068   0.5782
  18.500   1.8592   0.06364   0.05881  -0.0753   0.0062   0.5814
  19.000   1.8538   0.07029   0.06555  -0.0758   0.0064   0.5834
  19.500   1.8454   0.07744   0.07281  -0.0766   0.0061   0.5894
  20.000   1.8291   0.08566   0.08113  -0.0778   0.0054   0.5938
  20.500   1.8239   0.09255   0.08812  -0.0789   0.0057   0.5969
  21.000   1.8180   0.09954   0.09520  -0.0803   0.0058   0.6002
  21.500   1.7979   0.10861   0.10437  -0.0824   0.0050   0.6047
  22.000   1.7885   0.11631   0.11216  -0.0846   0.0048   0.6094
  22.500   1.7793   0.12393   0.11988  -0.0869   0.0046   0.6122
  23.000   1.7638   0.13271   0.12875  -0.0901   0.0038   0.6185
  23.500   1.7565   0.14036   0.13649  -0.0932   0.0037   0.6240
  24.000   1.7536   0.14728   0.14350  -0.0962   0.0040   0.6268
  24.500   1.7456   0.15522   0.15153  -0.1002   0.0037   0.6342
  25.000   1.7391   0.16299   0.15939  -0.1045   0.0034   0.6388
