  
       XFOIL         Version 6.99
  
 Calculated polar for: Profile34                                       
  
 1 1 Reynolds number fixed          Mach number fixed         
  
 xtrf =   1.000 (top)        1.000 (bottom)  
 Mach =   0.000     Re =     9.800 e 6     Ncrit =   9.000
  
   alpha    CL        CD       CDp       CM     Top_Xtr  Bot_Xtr
  ------ -------- --------- --------- -------- -------- --------
  -9.000  -0.9150   0.00845   0.00428  -0.0404   0.5378   0.2052
  -8.500  -0.8523   0.00783   0.00371  -0.0426   0.5212   0.2271
  -8.000  -0.7898   0.00736   0.00328  -0.0444   0.5068   0.2466
  -7.500  -0.7278   0.00688   0.00286  -0.0461   0.4928   0.2711
  -7.000  -0.6655   0.00655   0.00258  -0.0476   0.4840   0.2903
  -6.500  -0.6030   0.00633   0.00237  -0.0490   0.4715   0.3039
  -6.000  -0.5403   0.00616   0.00219  -0.0503   0.4562   0.3160
  -5.500  -0.4772   0.00609   0.00209  -0.0517   0.4461   0.3231
  -5.000  -0.4144   0.00595   0.00196  -0.0530   0.4373   0.3328
  -4.500  -0.3517   0.00584   0.00184  -0.0543   0.4265   0.3452
  -4.000  -0.2883   0.00579   0.00178  -0.0556   0.4194   0.3505
  -3.500  -0.2254   0.00574   0.00170  -0.0568   0.4077   0.3587
  -3.000  -0.1620   0.00573   0.00167  -0.0581   0.4004   0.3620
  -2.500  -0.0990   0.00570   0.00162  -0.0594   0.3897   0.3706
  -2.000  -0.0358   0.00568   0.00159  -0.0606   0.3839   0.3767
  -1.500   0.0271   0.00566   0.00156  -0.0618   0.3730   0.3869
  -1.000   0.0902   0.00568   0.00155  -0.0631   0.3652   0.3921
  -0.500   0.1533   0.00570   0.00155  -0.0643   0.3556   0.3993
  -0.000   0.2161   0.00575   0.00157  -0.0655   0.3440   0.4054
   0.500   0.2792   0.00580   0.00159  -0.0667   0.3383   0.4079
   1.000   0.3419   0.00585   0.00163  -0.0678   0.3300   0.4160
   1.500   0.4048   0.00587   0.00165  -0.0690   0.3244   0.4217
   2.000   0.4671   0.00600   0.00173  -0.0701   0.3109   0.4266
   2.500   0.5295   0.00606   0.00178  -0.0712   0.3041   0.4339
   3.000   0.5918   0.00617   0.00186  -0.0723   0.2954   0.4381
   3.500   0.6539   0.00630   0.00196  -0.0733   0.2862   0.4433
   4.000   0.7158   0.00639   0.00204  -0.0743   0.2785   0.4499
   4.500   0.7774   0.00654   0.00216  -0.0753   0.2710   0.4535
   5.000   0.8393   0.00665   0.00226  -0.0763   0.2660   0.4579
   5.500   0.9006   0.00677   0.00238  -0.0773   0.2597   0.4649
   6.000   0.9613   0.00697   0.00254  -0.0781   0.2492   0.4687
   6.500   1.0215   0.00721   0.00273  -0.0789   0.2383   0.4702
   7.000   1.0821   0.00737   0.00288  -0.0797   0.2334   0.4745
   7.500   1.1413   0.00761   0.00309  -0.0803   0.2225   0.4809
   8.000   1.1998   0.00792   0.00334  -0.0809   0.2104   0.4848
   8.500   1.2574   0.00828   0.00363  -0.0812   0.1970   0.4863
   9.000   1.3139   0.00866   0.00395  -0.0815   0.1836   0.4920
   9.500   1.3694   0.00909   0.00432  -0.0816   0.1700   0.4976
  10.000   1.4239   0.00955   0.00472  -0.0815   0.1579   0.5011
  10.500   1.4787   0.00994   0.00507  -0.0815   0.1500   0.5026
  11.000   1.5308   0.01046   0.00553  -0.0811   0.1385   0.5081
  11.500   1.5796   0.01111   0.00611  -0.0802   0.1248   0.5141
  12.000   1.6254   0.01183   0.00676  -0.0789   0.1114   0.5173
  12.500   1.6679   0.01263   0.00748  -0.0772   0.0997   0.5189
  13.000   1.7003   0.01347   0.00827  -0.0737   0.0899   0.5225
  13.500   1.7273   0.01454   0.00933  -0.0697   0.0819   0.5287
  14.000   1.7565   0.01584   0.01062  -0.0669   0.0755   0.5327
  14.500   1.7826   0.01753   0.01229  -0.0643   0.0689   0.5349
  15.000   1.8064   0.01961   0.01436  -0.0622   0.0631   0.5360
  15.500   1.8295   0.02197   0.01674  -0.0605   0.0589   0.5412
  16.000   1.8499   0.02473   0.01954  -0.0591   0.0550   0.5472
  16.500   1.8638   0.02815   0.02298  -0.0578   0.0513   0.5505
  17.000   1.8706   0.03227   0.02715  -0.0565   0.0477   0.5523
  17.500   1.8771   0.03656   0.03149  -0.0556   0.0454   0.5533
  18.000   1.8753   0.04191   0.03690  -0.0549   0.0426   0.5588
  18.500   1.8707   0.04773   0.04281  -0.0546   0.0406   0.5635
  19.000   1.8610   0.05421   0.04937  -0.0545   0.0383   0.5667
  19.500   1.8523   0.06074   0.05599  -0.0546   0.0368   0.5690
  20.000   1.8339   0.06847   0.06381  -0.0551   0.0350   0.5702
  20.500   1.8230   0.07545   0.07088  -0.0558   0.0339   0.5723
  22.000   1.7720   0.09944   0.09518  -0.0601   0.0304   0.5837
  22.500   1.7523   0.10794   0.10376  -0.0623   0.0286   0.5858
  23.000   1.7397   0.11569   0.11160  -0.0646   0.0276   0.5874
  23.500   1.7230   0.12404   0.12003  -0.0674   0.0263   0.5881
  24.500   1.7005   0.13977   0.13592  -0.0741   0.0238   0.5970
  25.000   1.6881   0.14794   0.14417  -0.0782   0.0222   0.6003
