  
       XFOIL         Version 6.99
  
 Calculated polar for: Profile22_12                                    
  
 1 1 Reynolds number fixed          Mach number fixed         
  
 xtrf =   1.000 (top)        1.000 (bottom)  
 Mach =   0.000     Re =     9.800 e 6     Ncrit =   9.000
  
   alpha    CL        CD       CDp       CM     Top_Xtr  Bot_Xtr
  ------ -------- --------- --------- -------- -------- --------
  -9.000  -0.1726   0.01254   0.00850  -0.1494   0.4362   0.2802
  -8.500  -0.0975   0.01216   0.00808  -0.1545   0.4247   0.2854
  -8.000  -0.0139   0.01158   0.00747  -0.1619   0.4098   0.2953
  -7.500   0.0634   0.01127   0.00710  -0.1673   0.3963   0.3005
  -7.000   0.1459   0.01089   0.00671  -0.1739   0.3865   0.3097
  -6.500   0.2227   0.01069   0.00645  -0.1790   0.3711   0.3150
  -6.000   0.3066   0.01036   0.00609  -0.1857   0.3628   0.3245
  -5.500   0.3796   0.01029   0.00597  -0.1896   0.3508   0.3274
  -5.000   0.4621   0.01005   0.00569  -0.1959   0.3415   0.3376
  -4.500   0.5355   0.00999   0.00559  -0.1998   0.3323   0.3421
  -4.000   0.6125   0.00988   0.00545  -0.2046   0.3241   0.3509
  -3.500   0.6857   0.00984   0.00537  -0.2085   0.3148   0.3566
  -3.000   0.7570   0.00984   0.00534  -0.2118   0.3080   0.3632
  -2.500   0.8302   0.00984   0.00530  -0.2156   0.2984   0.3711
  -2.000   0.8982   0.00989   0.00532  -0.2181   0.2946   0.3749
  -1.500   0.9675   0.00999   0.00538  -0.2210   0.2838   0.3836
  -1.000   1.0339   0.01008   0.00545  -0.2231   0.2788   0.3882
  -0.500   1.0975   0.01028   0.00559  -0.2246   0.2701   0.3945
  -0.000   1.1634   0.01038   0.00569  -0.2266   0.2658   0.4018
   0.500   1.2236   0.01060   0.00588  -0.2273   0.2606   0.4047
   1.000   1.2752   0.01091   0.00615  -0.2263   0.2517   0.4124
   1.500   1.3289   0.01120   0.00644  -0.2257   0.2487   0.4180
   2.000   1.3834   0.01160   0.00681  -0.2252   0.2431   0.4207
   2.500   1.4400   0.01196   0.00714  -0.2252   0.2372   0.4275
   3.000   1.4972   0.01228   0.00748  -0.2253   0.2346   0.4345
   3.500   1.5497   0.01275   0.00791  -0.2245   0.2292   0.4370
   4.000   1.6033   0.01318   0.00833  -0.2239   0.2234   0.4424
   4.500   1.6576   0.01360   0.00875  -0.2234   0.2208   0.4494
   5.000   1.7079   0.01416   0.00928  -0.2223   0.2151   0.4529
   5.500   1.7582   0.01469   0.00979  -0.2211   0.2103   0.4542
   6.000   1.8100   0.01517   0.01029  -0.2202   0.2080   0.4626
   6.500   1.8569   0.01588   0.01097  -0.2185   0.2017   0.4679
   7.000   1.9050   0.01649   0.01158  -0.2170   0.1973   0.4705
   7.500   1.9519   0.01715   0.01224  -0.2153   0.1946   0.4727
   8.000   1.9963   0.01796   0.01303  -0.2133   0.1893   0.4798
   8.500   2.0410   0.01872   0.01381  -0.2113   0.1854   0.4851
   9.000   2.0857   0.01948   0.01457  -0.2093   0.1824   0.4876
   9.500   2.1218   0.02065   0.01571  -0.2061   0.1753   0.4889
  10.000   2.1650   0.02151   0.01658  -0.2040   0.1724   0.4965
  10.500   2.1989   0.02281   0.01788  -0.2006   0.1673   0.5014
  11.000   2.2376   0.02389   0.01896  -0.1979   0.1631   0.5047
  11.500   2.2720   0.02520   0.02028  -0.1947   0.1600   0.5062
  12.000   2.3031   0.02674   0.02181  -0.1911   0.1541   0.5090
  12.500   2.3355   0.02822   0.02332  -0.1879   0.1513   0.5153
  13.000   2.3640   0.02998   0.02508  -0.1842   0.1468   0.5201
  13.500   2.3896   0.03198   0.02710  -0.1804   0.1424   0.5231
  14.000   2.4175   0.03387   0.02901  -0.1770   0.1396   0.5244
  14.500   2.4338   0.03661   0.03176  -0.1725   0.1337   0.5275
  15.000   2.4560   0.03911   0.03431  -0.1690   0.1317   0.5344
  15.500   2.4664   0.04274   0.03798  -0.1649   0.1277   0.5385
  16.000   2.4770   0.04664   0.04194  -0.1615   0.1239   0.5413
  16.500   2.4852   0.05092   0.04628  -0.1584   0.1218   0.5427
  17.000   2.4736   0.05721   0.05263  -0.1549   0.1168   0.5434
  17.500   2.4728   0.06256   0.05806  -0.1523   0.1142   0.5470
  18.000   2.4470   0.07053   0.06613  -0.1496   0.1105   0.5519
  18.500   2.4275   0.07797   0.07367  -0.1476   0.1064   0.5554
  19.000   2.3896   0.08760   0.08342  -0.1461   0.1031   0.5577
  19.500   2.3604   0.09633   0.09225  -0.1453   0.0991   0.5600
  20.000   2.3391   0.10428   0.10030  -0.1451   0.0971   0.5614
  20.500   2.2905   0.11557   0.11172  -0.1462   0.0933   0.5622
  21.000   2.2699   0.12365   0.11989  -0.1475   0.0908   0.5627
  21.500   2.2451   0.13225   0.12858  -0.1495   0.0880   0.5638
  22.000   2.2223   0.14076   0.13716  -0.1522   0.0846   0.5677
  22.500   2.2079   0.14827   0.14478  -0.1550   0.0829   0.5723
  23.000   2.1823   0.15730   0.15387  -0.1592   0.0788   0.5752
  23.500   2.1696   0.16459   0.16125  -0.1629   0.0768   0.5785
  24.000   2.1474   0.17321   0.16994  -0.1678   0.0732   0.5805
  24.500   2.1345   0.18062   0.17741  -0.1724   0.0704   0.5818
  25.000   2.1281   0.18706   0.18387  -0.1766   0.0667   0.5825
