  
       XFOIL         Version 6.99
  
 Calculated polar for: Profile28_12                                    
  
 1 1 Reynolds number fixed          Mach number fixed         
  
 xtrf =   1.000 (top)        1.000 (bottom)  
 Mach =   0.000     Re =     9.800 e 6     Ncrit =   9.000
  
   alpha    CL        CD       CDp       CM     Top_Xtr  Bot_Xtr
  ------ -------- --------- --------- -------- -------- --------
  -9.000  -0.1546   0.01018   0.00633  -0.1593   0.4735   0.2906
  -8.500  -0.0758   0.00970   0.00580  -0.1654   0.4560   0.2983
  -8.000   0.0012   0.00933   0.00540  -0.1708   0.4442   0.3081
  -7.500   0.0749   0.00908   0.00510  -0.1753   0.4307   0.3132
  -7.000   0.1484   0.00886   0.00483  -0.1797   0.4173   0.3208
  -6.500   0.2227   0.00859   0.00454  -0.1841   0.4085   0.3273
  -6.000   0.2939   0.00846   0.00435  -0.1878   0.3929   0.3352
  -5.500   0.3665   0.00826   0.00412  -0.1918   0.3860   0.3426
  -5.000   0.4347   0.00821   0.00402  -0.1946   0.3730   0.3489
  -4.500   0.5050   0.00808   0.00387  -0.1979   0.3648   0.3577
  -4.000   0.5711   0.00808   0.00382  -0.2001   0.3543   0.3619
  -3.500   0.6389   0.00802   0.00373  -0.2028   0.3461   0.3713
  -3.000   0.7032   0.00807   0.00373  -0.2046   0.3358   0.3751
  -2.500   0.7673   0.00812   0.00374  -0.2062   0.3281   0.3817
  -2.000   0.8314   0.00815   0.00375  -0.2079   0.3192   0.3888
  -1.500   0.8939   0.00823   0.00380  -0.2092   0.3144   0.3933
  -1.000   0.9555   0.00835   0.00388  -0.2103   0.3021   0.4027
  -0.500   1.0160   0.00848   0.00398  -0.2111   0.2963   0.4064
  -0.000   1.0749   0.00867   0.00411  -0.2115   0.2860   0.4096
   0.500   1.1348   0.00879   0.00423  -0.2122   0.2816   0.4169
   1.000   1.1918   0.00903   0.00442  -0.2123   0.2704   0.4218
   1.500   1.2493   0.00920   0.00457  -0.2123   0.2670   0.4255
   2.000   1.3050   0.00945   0.00479  -0.2121   0.2598   0.4336
   2.500   1.3602   0.00966   0.00499  -0.2118   0.2543   0.4383
   3.000   1.4037   0.00994   0.00527  -0.2090   0.2506   0.4399
   3.500   1.4537   0.01035   0.00564  -0.2077   0.2405   0.4474
   4.000   1.5065   0.01065   0.00595  -0.2069   0.2373   0.4536
   4.500   1.5564   0.01109   0.00634  -0.2056   0.2305   0.4560
   5.000   1.6078   0.01146   0.00670  -0.2046   0.2251   0.4595
   5.500   1.6588   0.01186   0.00710  -0.2035   0.2207   0.4669
   6.000   1.7065   0.01240   0.00760  -0.2019   0.2115   0.4715
   6.500   1.7549   0.01289   0.00807  -0.2004   0.2066   0.4732
   7.000   1.8012   0.01348   0.00863  -0.1986   0.1985   0.4785
   7.500   1.8479   0.01405   0.00920  -0.1969   0.1933   0.4847
   8.000   1.8914   0.01476   0.00987  -0.1947   0.1845   0.4884
   8.500   1.9317   0.01560   0.01067  -0.1920   0.1759   0.4901
   9.000   1.9751   0.01631   0.01136  -0.1898   0.1702   0.4932
   9.500   2.0124   0.01729   0.01232  -0.1868   0.1613   0.5003
  10.000   2.0478   0.01837   0.01336  -0.1835   0.1530   0.5049
  10.500   2.0845   0.01939   0.01437  -0.1805   0.1469   0.5071
  11.000   2.1169   0.02060   0.01556  -0.1769   0.1400   0.5081
  11.500   2.1509   0.02179   0.01674  -0.1736   0.1349   0.5150
  12.000   2.1798   0.02326   0.01821  -0.1698   0.1282   0.5200
  12.500   2.2051   0.02497   0.01990  -0.1655   0.1206   0.5232
  13.000   2.2307   0.02673   0.02165  -0.1615   0.1151   0.5250
  13.500   2.2489   0.02901   0.02391  -0.1568   0.1075   0.5259
  14.000   2.2673   0.03137   0.02628  -0.1525   0.1016   0.5304
  14.500   2.2785   0.03440   0.02932  -0.1477   0.0947   0.5357
  15.000   2.2844   0.03812   0.03305  -0.1430   0.0873   0.5395
  15.500   2.2847   0.04276   0.03773  -0.1389   0.0816   0.5422
  16.000   2.2868   0.04764   0.04265  -0.1358   0.0772   0.5437
  16.500   2.2815   0.05343   0.04851  -0.1329   0.0730   0.5442
  17.000   2.2696   0.06001   0.05518  -0.1305   0.0699   0.5483
  17.500   2.2507   0.06753   0.06280  -0.1285   0.0665   0.5526
  18.000   2.2245   0.07596   0.07133  -0.1269   0.0634   0.5556
  18.500   2.2000   0.08439   0.07988  -0.1259   0.0607   0.5580
  19.000   2.1635   0.09437   0.08998  -0.1257   0.0581   0.5597
  19.500   2.1368   0.10330   0.09902  -0.1260   0.0553   0.5611
  20.000   2.1050   0.11298   0.10882  -0.1271   0.0534   0.5620
  20.500   2.0752   0.12258   0.11852  -0.1289   0.0505   0.5626
  21.000   2.0582   0.13064   0.12667  -0.1309   0.0491   0.5640
  21.500   2.0358   0.13942   0.13554  -0.1338   0.0467   0.5680
  22.000   2.0221   0.14716   0.14337  -0.1368   0.0450   0.5723
  22.500   2.0057   0.15536   0.15165  -0.1405   0.0430   0.5753
  23.000   1.9927   0.16313   0.15951  -0.1444   0.0409   0.5779
  23.500   1.9816   0.17054   0.16699  -0.1485   0.0393   0.5798
  24.000   1.9793   0.17666   0.17314  -0.1521   0.0370   0.5812
  24.500   1.9729   0.18347   0.18003  -0.1565   0.0359   0.5818
  25.000   1.9614   0.19108   0.18770  -0.1617   0.0341   0.5836
