  
       XFOIL         Version 6.99
  
 Calculated polar for: Profile18_12                                    
  
 1 1 Reynolds number fixed          Mach number fixed         
  
 xtrf =   1.000 (top)        1.000 (bottom)  
 Mach =   0.000     Re =     9.800 e 6     Ncrit =   9.000
  
   alpha    CL        CD       CDp       CM     Top_Xtr  Bot_Xtr
  ------ -------- --------- --------- -------- -------- --------
  -9.000  -0.1990   0.01471   0.01049  -0.1354   0.4066   0.2661
  -8.500  -0.1200   0.01389   0.00965  -0.1422   0.3961   0.2749
  -8.000  -0.0434   0.01337   0.00908  -0.1480   0.3800   0.2806
  -7.500   0.0401   0.01279   0.00850  -0.1551   0.3731   0.2918
  -7.000   0.1223   0.01232   0.00798  -0.1618   0.3595   0.2992
  -6.500   0.2056   0.01195   0.00759  -0.1684   0.3506   0.3081
  -6.000   0.2817   0.01177   0.00737  -0.1732   0.3405   0.3136
  -5.500   0.3695   0.01140   0.00697  -0.1807   0.3312   0.3228
  -5.000   0.4448   0.01130   0.00683  -0.1851   0.3217   0.3282
  -4.500   0.5253   0.01116   0.00666  -0.1907   0.3126   0.3365
  -4.000   0.6014   0.01108   0.00653  -0.1952   0.3045   0.3401
  -3.500   0.6802   0.01101   0.00644  -0.2003   0.2978   0.3496
  -3.000   0.7530   0.01103   0.00643  -0.2039   0.2888   0.3545
  -2.500   0.8310   0.01100   0.00638  -0.2087   0.2846   0.3637
  -2.000   0.8926   0.01115   0.00649  -0.2101   0.2752   0.3692
  -1.500   0.9568   0.01129   0.00661  -0.2118   0.2712   0.3754
  -1.000   1.0257   0.01148   0.00677  -0.2146   0.2642   0.3833
  -0.500   1.0905   0.01173   0.00699  -0.2164   0.2575   0.3862
  -0.000   1.1582   0.01198   0.00722  -0.2188   0.2530   0.3946
   0.500   1.2238   0.01231   0.00751  -0.2207   0.2443   0.4006
   1.000   1.2856   0.01261   0.00779  -0.2218   0.2419   0.4034
   1.500   1.3492   0.01296   0.00812  -0.2233   0.2369   0.4121
   2.000   1.4094   0.01336   0.00849  -0.2241   0.2296   0.4171
   2.500   1.4677   0.01373   0.00886  -0.2244   0.2279   0.4202
   3.000   1.5279   0.01415   0.00927  -0.2252   0.2240   0.4295
   3.500   1.5827   0.01469   0.00977  -0.2250   0.2173   0.4339
   4.000   1.6378   0.01513   0.01021  -0.2247   0.2153   0.4357
   4.500   1.6934   0.01563   0.01071  -0.2246   0.2123   0.4443
   5.000   1.7446   0.01629   0.01134  -0.2237   0.2072   0.4493
   5.500   1.7966   0.01685   0.01190  -0.2229   0.2033   0.4516
   6.000   1.8469   0.01747   0.01253  -0.2219   0.2015   0.4555
   6.500   1.8959   0.01822   0.01326  -0.2207   0.1970   0.4628
   7.000   1.9421   0.01903   0.01406  -0.2190   0.1915   0.4672
   7.500   1.9895   0.01976   0.01479  -0.2175   0.1898   0.4690
   8.000   2.0330   0.02068   0.01569  -0.2154   0.1853   0.4712
   8.500   2.0743   0.02175   0.01676  -0.2131   0.1800   0.4782
   9.000   2.1208   0.02256   0.01760  -0.2116   0.1787   0.4831
   9.500   2.1592   0.02372   0.01876  -0.2089   0.1754   0.4857
  10.000   2.1960   0.02500   0.02002  -0.2060   0.1704   0.4869
  10.500   2.2361   0.02614   0.02118  -0.2037   0.1683   0.4913
  11.000   2.2743   0.02742   0.02249  -0.2012   0.1663   0.4973
  11.500   2.3068   0.02902   0.02410  -0.1980   0.1624   0.5017
  12.000   2.3377   0.03072   0.02580  -0.1946   0.1581   0.5041
  12.500   2.3711   0.03230   0.02741  -0.1917   0.1565   0.5051
  13.000   2.3986   0.03433   0.02946  -0.1883   0.1534   0.5092
  13.500   2.4199   0.03687   0.03202  -0.1844   0.1491   0.5156
  14.000   2.4493   0.03892   0.03412  -0.1816   0.1474   0.5201
  14.500   2.4670   0.04191   0.03716  -0.1779   0.1447   0.5224
  15.000   2.4742   0.04607   0.04135  -0.1740   0.1405   0.5236
  15.500   2.4869   0.05002   0.04537  -0.1711   0.1380   0.5272
  16.000   2.4958   0.05441   0.04983  -0.1684   0.1360   0.5335
  16.500   2.4877   0.06046   0.05596  -0.1654   0.1328   0.5374
  17.000   2.4750   0.06710   0.06269  -0.1627   0.1294   0.5404
  17.500   2.4691   0.07305   0.06875  -0.1606   0.1285   0.5421
  18.000   2.4567   0.07973   0.07552  -0.1588   0.1268   0.5429
  18.500   2.4332   0.08761   0.08350  -0.1573   0.1242   0.5448
  19.000   2.3932   0.09747   0.09349  -0.1564   0.1206   0.5488
  19.500   2.3795   0.10454   0.10067  -0.1562   0.1195   0.5535
  20.000   2.3571   0.11255   0.10879  -0.1565   0.1175   0.5568
  20.500   2.3292   0.12129   0.11762  -0.1576   0.1146   0.5593
  21.000   2.3113   0.12893   0.12536  -0.1592   0.1119   0.5612
  21.500   2.3160   0.13377   0.13025  -0.1602   0.1107   0.5624
  22.000   2.2988   0.14132   0.13788  -0.1625   0.1087   0.5636
  22.500   2.2750   0.14978   0.14642  -0.1658   0.1049   0.5681
  23.000   2.2657   0.15648   0.15321  -0.1688   0.1034   0.5732
  23.500   2.2450   0.16459   0.16139  -0.1730   0.1001   0.5766
  24.000   2.2258   0.17249   0.16936  -0.1774   0.0964   0.5796
  24.500   2.2336   0.17680   0.17371  -0.1799   0.0949   0.5817
  25.000   2.2147   0.18469   0.18165  -0.1851   0.0916   0.5826
