  
       XFOIL         Version 6.99
  
 Calculated polar for: Profile44                                       
  
 1 1 Reynolds number fixed          Mach number fixed         
  
 xtrf =   1.000 (top)        1.000 (bottom)  
 Mach =   0.000     Re =     9.800 e 6     Ncrit =   9.000
  
   alpha    CL        CD       CDp       CM     Top_Xtr  Bot_Xtr
  ------ -------- --------- --------- -------- -------- --------
  -9.000  -0.7570   0.00918   0.00448  -0.0613   0.6035   0.0066
  -8.500  -0.6993   0.00887   0.00411  -0.0620   0.5783   0.0066
  -8.000  -0.6415   0.00850   0.00370  -0.0627   0.5654   0.0065
  -7.500  -0.5836   0.00818   0.00336  -0.0634   0.5504   0.0081
  -7.000  -0.5257   0.00792   0.00306  -0.0640   0.5330   0.0082
  -6.500  -0.4678   0.00763   0.00273  -0.0645   0.5176   0.0095
  -6.000  -0.4095   0.00745   0.00251  -0.0650   0.5048   0.0072
  -5.500  -0.3516   0.00721   0.00226  -0.0656   0.4939   0.0104
  -5.000  -0.2935   0.00699   0.00203  -0.0660   0.4813   0.0147
  -4.500  -0.2353   0.00685   0.00187  -0.0665   0.4676   0.0139
  -4.000  -0.1775   0.00666   0.00168  -0.0669   0.4562   0.0231
  -3.500  -0.1193   0.00658   0.00157  -0.0673   0.4372   0.0235
  -3.000  -0.0634   0.00603   0.00128  -0.0674   0.4394   0.1003
  -2.500  -0.0129   0.00509   0.00086  -0.0667   0.4296   0.2763
  -2.000   0.0452   0.00508   0.00081  -0.0670   0.4171   0.2877
  -1.500   0.0992   0.00460   0.00064  -0.0666   0.4115   0.3931
  -1.000   0.1576   0.00461   0.00063  -0.0670   0.4000   0.4067
  -0.500   0.2158   0.00455   0.00062  -0.0673   0.3937   0.4344
  -0.000   0.2748   0.00456   0.00064  -0.0677   0.3892   0.4415
   0.500   0.3333   0.00467   0.00068  -0.0682   0.3710   0.4470
   1.000   0.3923   0.00465   0.00071  -0.0686   0.3710   0.4617
   1.500   0.4475   0.00524   0.00094  -0.0687   0.2800   0.4662
   2.000   0.5092   0.00491   0.00085  -0.0694   0.3348   0.4746
   2.500   0.5688   0.00487   0.00088  -0.0700   0.3459   0.4790
   3.000   0.6267   0.00507   0.00100  -0.0704   0.3210   0.4831
   3.500   0.6847   0.00525   0.00111  -0.0708   0.3024   0.4850
   4.500   0.7957   0.00626   0.00165  -0.0709   0.2061   0.4605
   5.000   0.8551   0.00621   0.00174  -0.0715   0.2138   0.4985
   5.500   0.9057   0.00731   0.00239  -0.0710   0.1118   0.5036
   6.000   0.9579   0.00818   0.00296  -0.0707   0.0495   0.5064
   6.500   1.0139   0.00854   0.00326  -0.0708   0.0390   0.5108
   7.000   1.0685   0.00904   0.00369  -0.0708   0.0233   0.5150
   7.500   1.1251   0.00927   0.00393  -0.0711   0.0260   0.5174
   8.000   1.1791   0.00980   0.00439  -0.0711   0.0163   0.5211
   8.500   1.2333   0.01027   0.00484  -0.0711   0.0118   0.5255
   9.000   1.2875   0.01069   0.00525  -0.0711   0.0104   0.5278
   9.500   1.3407   0.01123   0.00577  -0.0710   0.0076   0.5334
  10.000   1.3943   0.01167   0.00622  -0.0710   0.0080   0.5370
  10.500   1.4462   0.01225   0.00678  -0.0708   0.0063   0.5403
  11.000   1.4971   0.01289   0.00742  -0.0705   0.0048   0.5455
  11.500   1.5480   0.01349   0.00803  -0.0702   0.0048   0.5499
  12.000   1.5978   0.01414   0.00870  -0.0699   0.0047   0.5553
  12.500   1.6446   0.01495   0.00952  -0.0692   0.0039   0.5591
  13.000   1.6912   0.01576   0.01036  -0.0685   0.0038   0.5656
  13.500   1.7341   0.01670   0.01132  -0.0674   0.0033   0.5694
  14.000   1.7706   0.01777   0.01242  -0.0655   0.0030   0.5762
  14.500   1.8010   0.01922   0.01392  -0.0633   0.0027   0.5819
  15.000   1.8322   0.02096   0.01572  -0.0621   0.0027   0.5887
  15.500   1.8621   0.02329   0.01811  -0.0619   0.0027   0.5939
  16.000   1.8865   0.02641   0.02130  -0.0622   0.0025   0.6004
  16.500   1.9028   0.03050   0.02548  -0.0625   0.0024   0.6055
  17.000   1.9158   0.03510   0.03019  -0.0632   0.0023   0.6145
  17.500   1.9271   0.03981   0.03499  -0.0637   0.0024   0.6208
  18.000   1.9210   0.04667   0.04198  -0.0647   0.0022   0.6281
  18.500   1.9134   0.05383   0.04927  -0.0659   0.0020   0.6349
  19.000   1.9147   0.06030   0.05584  -0.0674   0.0020   0.6406
  19.500   1.9026   0.06878   0.06446  -0.0697   0.0020   0.6476
  20.000   1.8902   0.07731   0.07312  -0.0720   0.0020   0.6538
  20.500   1.8788   0.08610   0.08204  -0.0749   0.0020   0.6610
