  
       XFOIL         Version 6.99
  
 Calculated polar for: Profile30_-12                                   
  
 1 1 Reynolds number fixed          Mach number fixed         
  
 xtrf =   1.000 (top)        1.000 (bottom)  
 Mach =   0.000     Re =     9.800 e 6     Ncrit =   9.000
  
   alpha    CL        CD       CDp       CM     Top_Xtr  Bot_Xtr
  ------ -------- --------- --------- -------- -------- --------
  -9.000  -1.6379   0.01134   0.00679   0.0723   0.5450   0.1802
  -8.500  -1.5811   0.01072   0.00619   0.0715   0.5306   0.1917
  -8.000  -1.5233   0.01010   0.00564   0.0707   0.5238   0.2053
  -7.500  -1.4647   0.00946   0.00507   0.0697   0.5098   0.2226
  -7.000  -1.4050   0.00888   0.00457   0.0686   0.5026   0.2421
  -6.500  -1.3445   0.00833   0.00411   0.0674   0.4878   0.2626
  -6.000  -1.2821   0.00806   0.00385   0.0661   0.4788   0.2730
  -5.500  -1.2194   0.00778   0.00359   0.0648   0.4670   0.2822
  -5.000  -1.1564   0.00753   0.00336   0.0635   0.4582   0.2933
  -4.500  -1.0928   0.00738   0.00320   0.0622   0.4481   0.2985
  -4.000  -1.0292   0.00719   0.00302   0.0608   0.4402   0.3079
  -3.500  -0.9652   0.00705   0.00287   0.0594   0.4281   0.3142
  -3.000  -0.9012   0.00688   0.00271   0.0579   0.4148   0.3258
  -2.500  -0.8368   0.00678   0.00261   0.0564   0.4069   0.3316
  -2.000  -0.7725   0.00664   0.00247   0.0549   0.3957   0.3427
  -1.500  -0.7078   0.00658   0.00240   0.0534   0.3902   0.3461
  -1.000  -0.6432   0.00648   0.00231   0.0519   0.3817   0.3549
  -0.500  -0.5784   0.00642   0.00224   0.0504   0.3729   0.3604
  -0.000  -0.5135   0.00636   0.00217   0.0488   0.3651   0.3691
   0.500  -0.4486   0.00630   0.00212   0.0472   0.3561   0.3761
   1.000  -0.3836   0.00623   0.00206   0.0456   0.3506   0.3859
   1.500  -0.3185   0.00623   0.00204   0.0440   0.3389   0.3920
   2.000  -0.2531   0.00627   0.00204   0.0423   0.3305   0.3945
   2.500  -0.1880   0.00625   0.00203   0.0407   0.3210   0.4033
   3.000  -0.1228   0.00625   0.00203   0.0390   0.3154   0.4082
   3.500  -0.0575   0.00630   0.00205   0.0373   0.3067   0.4131
   4.000   0.0076   0.00626   0.00205   0.0357   0.3040   0.4213
   4.500   0.0730   0.00635   0.00210   0.0340   0.2938   0.4251
   5.000   0.1383   0.00641   0.00214   0.0323   0.2864   0.4287
   5.500   0.2034   0.00646   0.00219   0.0305   0.2794   0.4380
   6.000   0.2686   0.00652   0.00225   0.0288   0.2734   0.4421
   6.500   0.3338   0.00658   0.00231   0.0271   0.2701   0.4462
   7.000   0.3988   0.00669   0.00241   0.0253   0.2594   0.4534
   7.500   0.4638   0.00678   0.00249   0.0236   0.2546   0.4580
   8.000   0.5289   0.00693   0.00262   0.0218   0.2468   0.4604
   8.500   0.5937   0.00701   0.00271   0.0201   0.2426   0.4686
   9.000   0.6583   0.00716   0.00285   0.0183   0.2360   0.4745
   9.500   0.7230   0.00732   0.00299   0.0165   0.2287   0.4770
  10.000   0.7874   0.00752   0.00317   0.0147   0.2211   0.4837
  10.500   0.8516   0.00769   0.00334   0.0130   0.2138   0.4896
  11.000   0.9156   0.00796   0.00357   0.0111   0.2043   0.4930
  11.500   0.9795   0.00822   0.00380   0.0093   0.1964   0.4945
  12.000   1.0429   0.00852   0.00407   0.0075   0.1874   0.4994
  12.500   1.1058   0.00887   0.00439   0.0057   0.1770   0.5068
  13.500   1.2303   0.00973   0.00516   0.0021   0.1578   0.5128
  14.000   1.2922   0.01007   0.00549   0.0004   0.1521   0.5204
  14.500   1.3528   0.01062   0.00601  -0.0014   0.1420   0.5259
  15.000   1.4126   0.01121   0.00656  -0.0031   0.1341   0.5293
  15.500   1.4719   0.01182   0.00715  -0.0049   0.1272   0.5308
  16.000   1.5287   0.01284   0.00811  -0.0071   0.1156   0.5359
  16.500   1.5846   0.01405   0.00929  -0.0097   0.1066   0.5426
  17.000   1.6343   0.01606   0.01126  -0.0131   0.0955   0.5469
  17.500   1.6562   0.01920   0.01440  -0.0145   0.0880   0.5490
  18.000   1.6641   0.02281   0.01803  -0.0138   0.0823   0.5520
  18.500   1.6769   0.02631   0.02156  -0.0137   0.0785   0.5600
  19.000   1.6828   0.03048   0.02578  -0.0136   0.0742   0.5648
  19.500   1.6825   0.03540   0.03073  -0.0138   0.0695   0.5673
  20.000   1.6816   0.04063   0.03601  -0.0143   0.0661   0.5686
  20.500   1.6753   0.04648   0.04192  -0.0150   0.0623   0.5726
  21.000   1.6698   0.05238   0.04788  -0.0158   0.0595   0.5786
  21.500   1.6555   0.05937   0.05496  -0.0170   0.0568   0.5827
  22.000   1.6443   0.06618   0.06184  -0.0184   0.0547   0.5859
  22.500   1.6290   0.07357   0.06930  -0.0201   0.0518   0.5876
  23.000   1.6180   0.08060   0.07641  -0.0219   0.0503   0.5892
  23.500   1.5989   0.08869   0.08458  -0.0241   0.0476   0.5947
  24.000   1.5874   0.09608   0.09206  -0.0264   0.0462   0.5997
  24.500   1.5695   0.10431   0.10037  -0.0292   0.0441   0.6032
  25.000   1.5553   0.11228   0.10842  -0.0321   0.0422   0.6058
