  
       XFOIL         Version 6.99
  
 Calculated polar for: Profile26                                       
  
 1 1 Reynolds number fixed          Mach number fixed         
  
 xtrf =   1.000 (top)        1.000 (bottom)  
 Mach =   0.000     Re =     9.800 e 6     Ncrit =   9.000
  
   alpha    CL        CD       CDp       CM     Top_Xtr  Bot_Xtr
  ------ -------- --------- --------- -------- -------- --------
  -9.000  -0.8576   0.00906   0.00506  -0.0552   0.5042   0.2618
  -8.500  -0.7835   0.00857   0.00455  -0.0599   0.4903   0.2696
  -8.000  -0.7132   0.00834   0.00428  -0.0632   0.4762   0.2752
  -7.500  -0.6422   0.00807   0.00399  -0.0668   0.4606   0.2827
  -7.000  -0.5717   0.00785   0.00374  -0.0701   0.4462   0.2921
  -6.500  -0.5028   0.00770   0.00358  -0.0729   0.4372   0.2970
  -6.000  -0.4334   0.00756   0.00341  -0.0758   0.4224   0.3053
  -5.500  -0.3649   0.00748   0.00329  -0.0784   0.4083   0.3104
  -5.000  -0.2959   0.00734   0.00315  -0.0812   0.4014   0.3193
  -4.500  -0.2279   0.00729   0.00307  -0.0836   0.3887   0.3242
  -4.000  -0.1593   0.00720   0.00297  -0.0862   0.3807   0.3335
  -3.500  -0.0917   0.00717   0.00292  -0.0885   0.3700   0.3382
  -3.000  -0.0238   0.00714   0.00286  -0.0909   0.3596   0.3467
  -2.500   0.0437   0.00711   0.00282  -0.0931   0.3526   0.3520
  -2.000   0.1113   0.00710   0.00279  -0.0954   0.3428   0.3608
  -1.500   0.1784   0.00710   0.00277  -0.0975   0.3355   0.3660
  -1.000   0.2454   0.00715   0.00278  -0.0996   0.3252   0.3732
  -0.500   0.3124   0.00714   0.00278  -0.1016   0.3202   0.3794
  -0.000   0.3789   0.00722   0.00282  -0.1036   0.3117   0.3846
   0.500   0.4457   0.00723   0.00283  -0.1056   0.3049   0.3930
   1.000   0.5117   0.00734   0.00290  -0.1074   0.2969   0.3959
   1.500   0.5781   0.00738   0.00294  -0.1093   0.2904   0.4038
   2.000   0.6439   0.00750   0.00302  -0.1111   0.2819   0.4090
   2.500   0.7096   0.00758   0.00309  -0.1128   0.2761   0.4146
   3.000   0.7752   0.00769   0.00318  -0.1146   0.2694   0.4222
   3.500   0.8404   0.00781   0.00328  -0.1162   0.2625   0.4251
   4.000   0.9054   0.00795   0.00339  -0.1178   0.2566   0.4318
   4.500   0.9702   0.00809   0.00352  -0.1194   0.2495   0.4376
   5.000   1.0348   0.00822   0.00363  -0.1208   0.2461   0.4405
   5.500   1.0988   0.00841   0.00380  -0.1223   0.2388   0.4478
   6.000   1.1631   0.00854   0.00393  -0.1237   0.2347   0.4531
   6.500   1.2261   0.00878   0.00413  -0.1249   0.2276   0.4558
   7.000   1.2896   0.00894   0.00429  -0.1262   0.2230   0.4630
   7.500   1.3524   0.00915   0.00449  -0.1274   0.2180   0.4691
   8.000   1.4143   0.00941   0.00471  -0.1284   0.2112   0.4715
   8.500   1.4756   0.00970   0.00497  -0.1294   0.2047   0.4768
   9.000   1.5369   0.00995   0.00521  -0.1303   0.1988   0.4829
   9.500   1.5970   0.01027   0.00550  -0.1310   0.1929   0.4866
  10.000   1.6566   0.01058   0.00579  -0.1316   0.1870   0.4895
  10.500   1.7142   0.01101   0.00618  -0.1320   0.1779   0.4972
  11.000   1.7714   0.01140   0.00654  -0.1323   0.1722   0.5016
  11.500   1.8270   0.01184   0.00695  -0.1322   0.1651   0.5035
  12.000   1.8796   0.01239   0.00745  -0.1318   0.1566   0.5076
  12.500   1.9310   0.01293   0.00797  -0.1311   0.1506   0.5144
  13.000   1.9813   0.01344   0.00847  -0.1302   0.1455   0.5185
  13.500   2.0247   0.01418   0.00918  -0.1283   0.1378   0.5202
  14.000   2.0645   0.01495   0.00993  -0.1258   0.1327   0.5243
  14.500   2.0858   0.01601   0.01101  -0.1202   0.1278   0.5302
  15.000   2.1062   0.01766   0.01267  -0.1156   0.1213   0.5343
  15.500   2.1313   0.01942   0.01444  -0.1124   0.1168   0.5368
  16.000   2.1511   0.02178   0.01680  -0.1093   0.1107   0.5388
  16.500   2.1650   0.02483   0.01987  -0.1065   0.1044   0.5454
  17.000   2.1753   0.02841   0.02348  -0.1040   0.0993   0.5498
  17.500   2.1851   0.03224   0.02736  -0.1020   0.0951   0.5527
  18.000   2.1796   0.03751   0.03268  -0.0998   0.0896   0.5544
  18.500   2.1688   0.04367   0.03890  -0.0982   0.0850   0.5552
  19.000   2.1577   0.05014   0.04545  -0.0971   0.0816   0.5603
  19.500   2.1327   0.05821   0.05361  -0.0962   0.0774   0.5646
  20.000   2.1102   0.06628   0.06180  -0.0959   0.0749   0.5677
  20.500   2.0823   0.07498   0.07059  -0.0958   0.0713   0.5700
  21.000   2.0495   0.08453   0.08026  -0.0964   0.0691   0.5715
  21.500   2.0172   0.09412   0.08994  -0.0974   0.0658   0.5725
  22.000   1.9812   0.10439   0.10033  -0.0991   0.0636   0.5731
  22.500   1.9524   0.11394   0.10998  -0.1012   0.0604   0.5757
  23.000   1.9302   0.12277   0.11891  -0.1037   0.0582   0.5804
  23.500   1.8966   0.13336   0.12960  -0.1074   0.0555   0.5835
  24.000   1.8783   0.14203   0.13835  -0.1110   0.0532   0.5865
  24.500   1.8621   0.15042   0.14682  -0.1150   0.0507   0.5890
  25.000   1.8527   0.15799   0.15446  -0.1189   0.0491   0.5907
