  
       XFOIL         Version 6.99
  
 Calculated polar for: Profile46_15                                    
  
 1 1 Reynolds number fixed          Mach number fixed         
  
 xtrf =   1.000 (top)        1.000 (bottom)  
 Mach =   0.000     Re =     9.800 e 6     Ncrit =   9.000
  
   alpha    CL        CD       CDp       CM     Top_Xtr  Bot_Xtr
  ------ -------- --------- --------- -------- -------- --------
  -9.000   0.2087   0.00625   0.00297  -0.2315   0.8171   0.0017
  -8.500   0.2667   0.00583   0.00250  -0.2325   0.8162   0.0018
  -8.000   0.3245   0.00543   0.00204  -0.2333   0.8151   0.0021
  -7.500   0.3817   0.00513   0.00172  -0.2339   0.8141   0.0022
  -7.000   0.4385   0.00488   0.00151  -0.2344   0.8132   0.0091
  -6.500   0.4946   0.00478   0.00142  -0.2348   0.8123   0.0099
  -6.000   0.5532   0.00438   0.00102  -0.2356   0.8120   0.0103
  -5.500   0.6015   0.00487   0.00105  -0.2343   0.6797   0.0104
  -4.500   0.6987   0.00497   0.00118  -0.2319   0.5433   0.2499
  -4.000   0.7432   0.00528   0.00135  -0.2298   0.4539   0.3450
  -3.500   0.7978   0.00518   0.00141  -0.2297   0.4523   0.4254
  -3.000   0.8436   0.00563   0.00163  -0.2277   0.3819   0.4453
  -2.500   0.8899   0.00607   0.00187  -0.2258   0.3200   0.4593
  -2.000   0.9228   0.00759   0.00253  -0.2212   0.0780   0.4689
  -1.500   0.9725   0.00810   0.00282  -0.2200   0.0106   0.4762
  -1.000   1.0245   0.00836   0.00305  -0.2192   0.0062   0.4857
  -0.000   1.1275   0.00897   0.00363  -0.2174   0.0016   0.4993
   0.500   1.1785   0.00935   0.00405  -0.2164   0.0012   0.5048
   1.000   1.2296   0.00969   0.00436  -0.2155   0.0009   0.5097
   1.500   1.2803   0.01011   0.00478  -0.2144   0.0007   0.5169
   2.000   1.3300   0.01066   0.00537  -0.2131   0.0005   0.5212
   2.500   1.3791   0.01128   0.00606  -0.2117   0.0005   0.5273
   3.000   1.4285   0.01167   0.00643  -0.2104   0.0003   0.5315
   3.500   1.4766   0.01229   0.00710  -0.2089   0.0003   0.5366
   4.000   1.5237   0.01301   0.00788  -0.2072   0.0003   0.5413
   4.500   1.5449   0.02533   0.02139  -0.1973   0.0003   0.5447
   5.000   1.5825   0.02896   0.02525  -0.1936   0.0003   0.5498
   5.500   1.6300   0.02497   0.02110  -0.1934   0.0002   0.5550
   6.000   1.6671   0.02796   0.02423  -0.1899   0.0002   0.5600
   6.500   1.7069   0.02746   0.02376  -0.1874   0.0002   0.5659
   7.000   1.7445   0.02768   0.02403  -0.1844   0.0002   0.5715
