  
       XFOIL         Version 6.99
  
 Calculated polar for: Profile14_12                                    
  
 1 1 Reynolds number fixed          Mach number fixed         
  
 xtrf =   1.000 (top)        1.000 (bottom)  
 Mach =   0.000     Re =     9.800 e 6     Ncrit =   9.000
  
   alpha    CL        CD       CDp       CM     Top_Xtr  Bot_Xtr
  ------ -------- --------- --------- -------- -------- --------
  -9.000  -0.1108   0.02916   0.02429  -0.1081   0.4211   0.1677
  -8.500  -0.1889   0.02652   0.02174  -0.0923   0.4164   0.1872
  -8.000  -0.2292   0.02543   0.02062  -0.0796   0.4088   0.1869
  -7.500  -0.2590   0.02317   0.01840  -0.0708   0.4055   0.1992
  -7.000  -0.2196   0.01914   0.01458  -0.0781   0.3970   0.2464
  -6.500  -0.1378   0.01770   0.01318  -0.0875   0.3829   0.2687
  -6.000  -0.0409   0.01655   0.01208  -0.0991   0.3695   0.2912
  -5.500   0.0265   0.01656   0.01204  -0.1025   0.3633   0.2893
  -5.000   0.1586   0.01531   0.01093  -0.1212   0.3526   0.3319
  -4.500   0.2421   0.01521   0.01084  -0.1280   0.3482   0.3407
  -4.000   0.3258   0.01520   0.01079  -0.1349   0.3365   0.3478
  -3.500   0.4098   0.01521   0.01082  -0.1417   0.3325   0.3572
  -3.000   0.4856   0.01543   0.01099  -0.1467   0.3232   0.3625
  -2.500   0.5713   0.01554   0.01109  -0.1537   0.3161   0.3720
  -2.000   0.6457   0.01580   0.01133  -0.1583   0.3107   0.3766
  -1.500   0.7164   0.01616   0.01164  -0.1621   0.2988   0.3813
  -1.000   0.7982   0.01646   0.01192  -0.1683   0.2928   0.3895
  -0.500   0.8654   0.01693   0.01233  -0.1714   0.2822   0.3921
  -0.000   0.9441   0.01726   0.01268  -0.1767   0.2803   0.4009
   0.500   1.0130   0.01790   0.01324  -0.1803   0.2659   0.4066
   1.000   1.0819   0.01856   0.01389  -0.1839   0.2591   0.4154
   1.500   1.1481   0.01925   0.01454  -0.1868   0.2524   0.4210
   2.000   1.2128   0.01982   0.01510  -0.1893   0.2493   0.4245
   2.500   1.2816   0.02046   0.01574  -0.1927   0.2459   0.4321
   3.000   1.3427   0.02124   0.01649  -0.1946   0.2406   0.4363
   3.500   1.3969   0.02214   0.01737  -0.1953   0.2346   0.4381
   4.000   1.4588   0.02298   0.01822  -0.1974   0.2315   0.4462
   4.500   1.5132   0.02406   0.01926  -0.1983   0.2234   0.4518
   5.000   1.5693   0.02485   0.02005  -0.1992   0.2211   0.4537
   5.500   1.6221   0.02596   0.02117  -0.1998   0.2190   0.4600
   6.000   1.6732   0.02718   0.02238  -0.2001   0.2144   0.4662
   6.500   1.7237   0.02821   0.02341  -0.2002   0.2112   0.4692
   7.000   1.7694   0.02953   0.02474  -0.1997   0.2070   0.4733
   7.500   1.8196   0.03078   0.02601  -0.1999   0.2056   0.4804
   8.000   1.8637   0.03217   0.02739  -0.1992   0.2020   0.4843
   8.500   1.8960   0.03418   0.02939  -0.1969   0.1956   0.4856
   9.000   1.9408   0.03551   0.03074  -0.1963   0.1947   0.4886
   9.500   1.9849   0.03705   0.03231  -0.1959   0.1928   0.4951
  10.000   2.0146   0.03953   0.03482  -0.1938   0.1900   0.4991
  10.500   2.0435   0.04207   0.03739  -0.1918   0.1870   0.5015
  11.000   2.0720   0.04468   0.04002  -0.1900   0.1836   0.5030
  11.500   2.1026   0.04729   0.04269  -0.1887   0.1822   0.5096
  12.000   2.1258   0.05047   0.04591  -0.1868   0.1795   0.5142
  12.500   2.1342   0.05474   0.05021  -0.1839   0.1734   0.5169
  13.000   2.1395   0.05934   0.05485  -0.1811   0.1692   0.5183
  13.500   2.1495   0.06359   0.05915  -0.1790   0.1673   0.5207
  14.000   2.1508   0.06875   0.06438  -0.1767   0.1627   0.5263
  14.500   2.1608   0.07322   0.06893  -0.1752   0.1611   0.5303
  15.000   2.1621   0.07835   0.07413  -0.1735   0.1587   0.5329
  15.500   2.1458   0.08513   0.08095  -0.1712   0.1525   0.5348
  16.000   2.1501   0.09012   0.08602  -0.1703   0.1515   0.5393
  16.500   2.1506   0.09551   0.09150  -0.1695   0.1500   0.5451
  17.000   2.1409   0.10184   0.09791  -0.1688   0.1470   0.5485
  17.500   2.1276   0.10850   0.10462  -0.1684   0.1420   0.5504
  18.000   2.1280   0.11377   0.10997  -0.1685   0.1409   0.5515
  18.500   2.1056   0.12141   0.11765  -0.1689   0.1350   0.5533
  19.000   2.1025   0.12721   0.12353  -0.1699   0.1322   0.5586
  19.500   2.1159   0.13118   0.12754  -0.1710   0.1305   0.5631
  20.000   2.0954   0.13868   0.13508  -0.1727   0.1248   0.5659
  20.500   2.0960   0.14392   0.14039  -0.1744   0.1235   0.5673
  21.000   2.0961   0.14917   0.14571  -0.1763   0.1225   0.5682
  21.500   2.1081   0.15308   0.14966  -0.1781   0.1207   0.5717
  22.000   2.0954   0.15981   0.15645  -0.1811   0.1172   0.5761
  22.500   2.0889   0.16579   0.16250  -0.1841   0.1146   0.5794
  23.000   2.0973   0.16993   0.16666  -0.1865   0.1117   0.5826
  24.000   2.0992   0.17984   0.17666  -0.1925   0.1070   0.5885
  24.500   2.0958   0.18534   0.18224  -0.1962   0.1053   0.5940
  25.000   2.0819   0.19204   0.18900  -0.2008   0.1025   0.5978
