  
       XFOIL         Version 6.99
  
 Calculated polar for: Profile36                                       
  
 1 1 Reynolds number fixed          Mach number fixed         
  
 xtrf =   1.000 (top)        1.000 (bottom)  
 Mach =   0.000     Re =     9.800 e 6     Ncrit =   9.000
  
   alpha    CL        CD       CDp       CM     Top_Xtr  Bot_Xtr
  ------ -------- --------- --------- -------- -------- --------
  -9.000  -0.9121   0.00935   0.00494  -0.0384   0.5422   0.1531
  -8.500  -0.8528   0.00821   0.00395  -0.0407   0.5322   0.1895
  -8.000  -0.7932   0.00761   0.00341  -0.0422   0.5173   0.2128
  -7.500  -0.7342   0.00703   0.00291  -0.0433   0.5027   0.2415
  -7.000  -0.6741   0.00670   0.00261  -0.0444   0.4900   0.2598
  -6.500  -0.6149   0.00627   0.00227  -0.0452   0.4799   0.2867
  -6.000  -0.5546   0.00604   0.00206  -0.0461   0.4654   0.3046
  -5.500  -0.4936   0.00589   0.00190  -0.0471   0.4517   0.3174
  -5.000  -0.4327   0.00573   0.00175  -0.0480   0.4433   0.3308
  -4.500  -0.3716   0.00560   0.00163  -0.0489   0.4325   0.3443
  -4.000  -0.3099   0.00554   0.00156  -0.0499   0.4227   0.3535
  -3.500  -0.2479   0.00548   0.00149  -0.0509   0.4167   0.3602
  -3.000  -0.1858   0.00547   0.00145  -0.0519   0.4089   0.3668
  -2.500  -0.1239   0.00542   0.00140  -0.0528   0.4019   0.3737
  -2.000  -0.0616   0.00544   0.00138  -0.0539   0.3932   0.3772
  -1.500   0.0002   0.00541   0.00135  -0.0548   0.3845   0.3861
  -1.000   0.0620   0.00543   0.00134  -0.0558   0.3718   0.3949
  -0.500   0.1238   0.00542   0.00133  -0.0568   0.3656   0.4041
  -0.000   0.1860   0.00548   0.00136  -0.0578   0.3557   0.4064
   0.500   0.2481   0.00551   0.00137  -0.0588   0.3492   0.4129
   1.000   0.3098   0.00557   0.00141  -0.0597   0.3382   0.4183
   1.500   0.3715   0.00566   0.00146  -0.0606   0.3287   0.4216
   2.000   0.4334   0.00569   0.00149  -0.0616   0.3236   0.4300
   2.500   0.4949   0.00578   0.00156  -0.0625   0.3159   0.4356
   3.000   0.5567   0.00587   0.00163  -0.0635   0.3088   0.4374
   3.500   0.6176   0.00600   0.00172  -0.0643   0.2970   0.4446
   4.000   0.6788   0.00610   0.00181  -0.0652   0.2892   0.4499
   4.500   0.7397   0.00625   0.00193  -0.0660   0.2794   0.4524
   5.000   0.8002   0.00641   0.00205  -0.0668   0.2711   0.4582
   5.500   0.8611   0.00651   0.00216  -0.0676   0.2651   0.4646
   6.000   0.9206   0.00675   0.00235  -0.0683   0.2506   0.4678
   6.500   0.9799   0.00700   0.00253  -0.0689   0.2387   0.4704
   7.000   1.0397   0.00716   0.00270  -0.0696   0.2322   0.4778
   7.500   1.0985   0.00741   0.00291  -0.0701   0.2215   0.4824
   8.000   1.1550   0.00782   0.00322  -0.0704   0.2035   0.4842
   8.500   1.2110   0.00823   0.00355  -0.0705   0.1858   0.4886
   9.000   1.2673   0.00861   0.00387  -0.0708   0.1729   0.4948
   9.500   1.3228   0.00900   0.00422  -0.0709   0.1616   0.4987
  10.000   1.3766   0.00947   0.00462  -0.0707   0.1486   0.5004
  10.500   1.4295   0.00997   0.00505  -0.0705   0.1365   0.5049
  11.000   1.4783   0.01068   0.00566  -0.0697   0.1183   0.5111
  11.500   1.5261   0.01137   0.00628  -0.0688   0.1050   0.5149
  12.000   1.5710   0.01212   0.00695  -0.0674   0.0925   0.5168
  12.500   1.6115   0.01294   0.00771  -0.0654   0.0817   0.5205
  13.000   1.6425   0.01385   0.00859  -0.0619   0.0739   0.5262
  13.500   1.6758   0.01498   0.00971  -0.0595   0.0668   0.5302
  14.000   1.7071   0.01639   0.01110  -0.0574   0.0607   0.5324
  14.500   1.7384   0.01799   0.01270  -0.0559   0.0566   0.5335
  15.000   1.7679   0.02000   0.01471  -0.0548   0.0522   0.5378
  15.500   1.7953   0.02244   0.01718  -0.0542   0.0481   0.5431
  16.000   1.8184   0.02544   0.02021  -0.0539   0.0442   0.5469
  16.500   1.8354   0.02909   0.02389  -0.0537   0.0405   0.5492
  17.000   1.8496   0.03310   0.02794  -0.0536   0.0381   0.5504
  17.500   1.8710   0.03762   0.03252  -0.0558   0.0362   0.5558
  18.000   1.8781   0.04292   0.03790  -0.0566   0.0344   0.5608
  18.500   1.8790   0.04861   0.04367  -0.0570   0.0327   0.5643
  19.000   1.8770   0.05459   0.04973  -0.0574   0.0315   0.5666
  19.500   1.8620   0.06210   0.05732  -0.0580   0.0294   0.5676
  20.000   1.8536   0.06902   0.06434  -0.0588   0.0281   0.5735
  20.500   1.8347   0.07732   0.07275  -0.0601   0.0266   0.5778
  21.000   1.8255   0.08452   0.08004  -0.0614   0.0258   0.5813
  21.500   1.8001   0.09375   0.08938  -0.0632   0.0243   0.5830
  22.000   1.7848   0.10185   0.09756  -0.0651   0.0231   0.5842
  22.500   1.7672   0.11024   0.10604  -0.0674   0.0218   0.5847
  23.000   1.7521   0.11859   0.11448  -0.0701   0.0206   0.5887
  23.500   1.7374   0.12698   0.12297  -0.0732   0.0199   0.5927
  24.000   1.7237   0.13534   0.13143  -0.0768   0.0190   0.5958
  24.500   1.7132   0.14335   0.13952  -0.0805   0.0178   0.5985
  25.000   1.7102   0.15019   0.14642  -0.0840   0.0172   0.6007
