  
       XFOIL         Version 6.99
  
 Calculated polar for: Profile44_-12                                   
  
 1 1 Reynolds number fixed          Mach number fixed         
  
 xtrf =   1.000 (top)        1.000 (bottom)  
 Mach =   0.000     Re =     9.800 e 6     Ncrit =   9.000
  
   alpha    CL        CD       CDp       CM     Top_Xtr  Bot_Xtr
  ------ -------- --------- --------- -------- -------- --------
  -9.000  -1.4327   0.01280   0.00774   0.0493   0.5985   0.0054
  -8.500  -1.3816   0.01223   0.00716   0.0500   0.5883   0.0059
  -8.000  -1.3300   0.01167   0.00651   0.0507   0.5590   0.0057
  -7.500  -1.2766   0.01125   0.00611   0.0512   0.5598   0.0059
  -7.000  -1.2233   0.01076   0.00560   0.0516   0.5477   0.0061
  -6.500  -1.1695   0.01033   0.00513   0.0520   0.5363   0.0061
  -6.000  -1.1150   0.00992   0.00471   0.0524   0.5205   0.0068
  -5.500  -1.0598   0.00955   0.00431   0.0526   0.5109   0.0065
  -5.000  -1.0045   0.00918   0.00392   0.0528   0.4996   0.0069
  -4.500  -0.9487   0.00887   0.00361   0.0529   0.4915   0.0077
  -4.000  -0.8924   0.00858   0.00330   0.0530   0.4805   0.0075
  -3.500  -0.8358   0.00831   0.00302   0.0531   0.4692   0.0084
  -3.000  -0.7792   0.00806   0.00278   0.0531   0.4613   0.0097
  -2.500  -0.7222   0.00780   0.00252   0.0531   0.4530   0.0106
  -1.500  -0.6080   0.00735   0.00209   0.0529   0.4359   0.0164
  -1.000  -0.5508   0.00711   0.00189   0.0528   0.4270   0.0260
  -0.500  -0.4924   0.00702   0.00177   0.0525   0.4172   0.0200
  -0.000  -0.4379   0.00647   0.00147   0.0529   0.4089   0.0971
   0.500  -0.3780   0.00657   0.00144   0.0523   0.3966   0.0644
   1.000  -0.3218   0.00619   0.00125   0.0524   0.3964   0.1221
   2.000  -0.2175   0.00525   0.00084   0.0535   0.2865   0.3766
   2.500  -0.1617   0.00458   0.00064   0.0540   0.3769   0.4312
   3.000  -0.1044   0.00449   0.00063   0.0538   0.3647   0.4645
   4.000   0.0328   0.00624   0.00107   0.0494   0.3518   0.0035
   4.500   0.0912   0.00632   0.00109   0.0488   0.3195   0.0034
   5.000   0.1320   0.00460   0.00073   0.0517   0.3360   0.4887
   6.000   0.2508   0.00495   0.00090   0.0502   0.2939   0.4783
   6.500   0.3098   0.00518   0.00103   0.0495   0.2659   0.4779
   7.000   0.3669   0.00552   0.00128   0.0489   0.2154   0.5088
   7.500   0.4252   0.00585   0.00149   0.0481   0.1831   0.5120
   8.000   0.4832   0.00658   0.00192   0.0471   0.1137   0.5016
   8.500   0.5410   0.00673   0.00210   0.0465   0.1069   0.5212
   9.000   0.5980   0.00751   0.00263   0.0455   0.0488   0.5230
   9.500   0.6555   0.00797   0.00300   0.0446   0.0300   0.5274
  10.000   0.7125   0.00853   0.00348   0.0437   0.0125   0.5324
  10.500   0.7706   0.00870   0.00368   0.0429   0.0182   0.5348
  11.000   0.8280   0.00907   0.00405   0.0420   0.0155   0.5407
  11.500   0.8850   0.00952   0.00448   0.0410   0.0124   0.5452
  12.000   0.9415   0.01008   0.00501   0.0399   0.0076   0.5506
  12.500   0.9985   0.01045   0.00541   0.0389   0.0094   0.5549
  13.000   1.0546   0.01108   0.00603   0.0377   0.0066   0.5624
  13.500   1.1103   0.01171   0.00666   0.0363   0.0051   0.5669
  14.000   1.1664   0.01227   0.00725   0.0350   0.0060   0.5752
  14.500   1.2216   0.01315   0.00814   0.0331   0.0045   0.5808
  15.000   1.2775   0.01394   0.00898   0.0311   0.0053   0.5880
  15.500   1.3325   0.01523   0.01030   0.0281   0.0045   0.5982
  16.000   1.3852   0.01717   0.01227   0.0238   0.0030   0.6068
  16.500   1.4352   0.01895   0.01410   0.0201   0.0033   0.6167
  17.000   1.4710   0.02158   0.01678   0.0171   0.0032   0.6270
  17.500   1.4957   0.02487   0.02014   0.0150   0.0026   0.6372
  18.000   1.5171   0.02849   0.02383   0.0129   0.0022   0.6537
  18.500   1.5491   0.03114   0.02657   0.0108   0.0033   0.6739
  19.000   1.5665   0.03589   0.03146   0.0073   0.0026   0.7083
