  
       XFOIL         Version 6.99
  
 Calculated polar for: Profile38_-12                                   
  
 1 1 Reynolds number fixed          Mach number fixed         
  
 xtrf =   1.000 (top)        1.000 (bottom)  
 Mach =   0.000     Re =     9.800 e 6     Ncrit =   9.000
  
   alpha    CL        CD       CDp       CM     Top_Xtr  Bot_Xtr
  ------ -------- --------- --------- -------- -------- --------
  -9.000  -1.4277   0.01737   0.01201   0.0497   0.5519   0.0134
  -8.500  -1.4089   0.01499   0.00958   0.0517   0.5392   0.0180
  -8.000  -1.3783   0.01386   0.00845   0.0548   0.5299   0.0224
  -7.500  -1.3449   0.01323   0.00779   0.0584   0.5207   0.0232
  -7.000  -1.3023   0.01263   0.00717   0.0604   0.5046   0.0248
  -6.500  -1.2561   0.01206   0.00662   0.0619   0.5026   0.0272
  -6.000  -1.2052   0.01169   0.00621   0.0628   0.4893   0.0255
  -5.500  -1.1572   0.01113   0.00569   0.0640   0.4825   0.0326
  -5.000  -1.1073   0.01064   0.00522   0.0651   0.4712   0.0406
  -4.500  -1.0519   0.01041   0.00496   0.0653   0.4649   0.0358
  -4.000  -1.0232   0.00864   0.00367   0.0696   0.4571   0.1341
  -3.500  -0.9737   0.00801   0.00320   0.0709   0.4499   0.1685
  -3.000  -0.9386   0.00653   0.00223   0.0745   0.4402   0.2782
  -2.500  -0.8770   0.00658   0.00220   0.0738   0.4330   0.2700
  -2.000  -0.8235   0.00610   0.00188   0.0744   0.4248   0.3089
  -1.500  -0.7687   0.00565   0.00160   0.0748   0.4168   0.3528
  -1.000  -0.7078   0.00561   0.00153   0.0741   0.4094   0.3561
  -0.500  -0.6487   0.00531   0.00137   0.0737   0.4066   0.3881
  -0.000  -0.5865   0.00539   0.00136   0.0728   0.3933   0.3800
   0.500  -0.5240   0.00548   0.00137   0.0718   0.3901   0.3675
   1.000  -0.4627   0.00537   0.00129   0.0710   0.3800   0.3847
   1.500  -0.4007   0.00528   0.00123   0.0699   0.3734   0.4009
   2.000  -0.3379   0.00556   0.00134   0.0690   0.3691   0.3630
   2.500  -0.2753   0.00526   0.00121   0.0677   0.3616   0.4094
   3.000  -0.2139   0.00576   0.00139   0.0668   0.3172   0.3707
   3.500  -0.1503   0.00543   0.00126   0.0655   0.3403   0.4007
   4.000  -0.0724   0.00752   0.00213   0.0621   0.3303   0.0026
   4.500  -0.0197   0.00524   0.00122   0.0618   0.3281   0.4496
   5.000   0.0441   0.00532   0.00127   0.0603   0.3188   0.4520
   5.500   0.0988   0.00677   0.00195   0.0597   0.1706   0.4069
   6.000   0.1731   0.00537   0.00135   0.0570   0.3098   0.4613
   6.500   0.2311   0.00808   0.00292   0.0539   0.0000   0.4700
   7.000   0.3033   0.00559   0.00153   0.0531   0.2836   0.4763
   7.500   0.3668   0.00590   0.00172   0.0513   0.2547   0.4778
   8.000   0.4311   0.00591   0.00176   0.0497   0.2612   0.4787
   8.500   0.4966   0.00602   0.00187   0.0476   0.2521   0.4859
   9.000   0.5608   0.00643   0.00216   0.0455   0.2209   0.4897
   9.500   0.6284   0.00643   0.00222   0.0430   0.2256   0.4939
  10.000   0.6924   0.00702   0.00263   0.0406   0.1892   0.4948
  10.500   0.7574   0.00739   0.00293   0.0382   0.1706   0.5008
  11.000   0.8175   0.00821   0.00353   0.0364   0.1326   0.4953
  11.500   0.8774   0.00862   0.00387   0.0350   0.1245   0.4851
  12.000   0.9433   0.00908   0.00433   0.0320   0.1087   0.5113
  12.500   1.0043   0.00956   0.00477   0.0301   0.1000   0.5145
  13.000   1.0643   0.01030   0.00544   0.0280   0.0841   0.5203
  13.500   1.1256   0.01065   0.00582   0.0260   0.0845   0.5266
  14.000   1.1836   0.01175   0.00682   0.0234   0.0686   0.5279
  14.500   1.2403   0.01353   0.00849   0.0194   0.0505   0.5297
  15.000   1.2937   0.01563   0.01055   0.0147   0.0401   0.5352
  15.500   1.3511   0.01630   0.01130   0.0124   0.0468   0.5417
  16.000   1.3864   0.01882   0.01383   0.0100   0.0424   0.5444
  17.000   1.4398   0.02440   0.01944   0.0075   0.0348   0.5539
  17.500   1.4657   0.02731   0.02240   0.0062   0.0339   0.5600
  18.000   1.4614   0.03307   0.02814   0.0047   0.0243   0.5614
  18.500   1.4736   0.03738   0.03247   0.0034   0.0216   0.5632
  19.000   1.5007   0.04031   0.03548   0.0021   0.0241   0.5690
  19.500   1.5008   0.04603   0.04126   0.0004   0.0210   0.5748
  20.000   1.5101   0.05084   0.04612  -0.0011   0.0203   0.5794
  20.500   1.5133   0.05632   0.05165  -0.0028   0.0186   0.5818
  21.000   1.5287   0.06056   0.05598  -0.0043   0.0203   0.5873
  21.500   1.5016   0.06969   0.06516  -0.0070   0.0149   0.5920
  22.000   1.5116   0.07469   0.07025  -0.0089   0.0161   0.5975
  22.500   1.5176   0.08011   0.07575  -0.0109   0.0170   0.5995
  23.000   1.5145   0.08679   0.08252  -0.0133   0.0162   0.6073
  23.500   1.5093   0.09372   0.08952  -0.0160   0.0153   0.6121
  24.000   1.5110   0.09988   0.09575  -0.0185   0.0152   0.6152
  24.500   1.5099   0.10642   0.10237  -0.0212   0.0153   0.6182
  25.000   1.5064   0.11350   0.10956  -0.0244   0.0152   0.6290
