  
       XFOIL         Version 6.99
  
 Calculated polar for: Profile50_15                                    
  
 1 1 Reynolds number fixed          Mach number fixed         
  
 xtrf =   1.000 (top)        1.000 (bottom)  
 Mach =   0.000     Re =     9.800 e 6     Ncrit =   9.000
  
   alpha    CL        CD       CDp       CM     Top_Xtr  Bot_Xtr
  ------ -------- --------- --------- -------- -------- --------
  -9.000   0.3588   0.00629   0.00232  -0.2508   0.6700   0.0528
  -8.000   0.4781   0.00603   0.00209  -0.2537   0.6387   0.0932
  -7.000   0.5959   0.00582   0.00198  -0.2561   0.6118   0.1574
  -5.000   0.8114   0.00566   0.00211  -0.2564   0.5633   0.3469
  -4.000   0.9112   0.00600   0.00250  -0.2546   0.5419   0.4049
  -3.000   1.0025   0.00668   0.00312  -0.2511   0.5158   0.4272
  -1.000   1.1924   0.00818   0.00451  -0.2457   0.4669   0.4676
  -0.000   1.2830   0.00918   0.00535  -0.2422   0.4218   0.4840
   1.000   1.3733   0.01029   0.00623  -0.2388   0.3677   0.5009
   2.000   1.4475   0.01237   0.00766  -0.2326   0.2352   0.5161
   3.000   1.5255   0.01434   0.00920  -0.2272   0.1456   0.5296
   4.000   1.6033   0.01629   0.01087  -0.2218   0.0902   0.5433
   6.000   1.7446   0.02092   0.01519  -0.2093   0.0272   0.5704
   7.000   1.8151   0.02328   0.01753  -0.2033   0.0207   0.5842
   8.000   1.8824   0.02589   0.02016  -0.1971   0.0177   0.5984
   9.000   1.9439   0.02896   0.02327  -0.1904   0.0154   0.6129
  10.000   1.9964   0.03281   0.02716  -0.1829   0.0120   0.6259
  11.000   2.0316   0.03833   0.03272  -0.1739   0.0063   0.6393
  12.000   2.0670   0.04433   0.03882  -0.1663   0.0053   0.6510
  13.000   2.0963   0.05171   0.04632  -0.1598   0.0049   0.6618
  14.000   2.1171   0.06053   0.05529  -0.1542   0.0046   0.6729
  15.000   2.1299   0.07054   0.06547  -0.1494   0.0045   0.6843
  16.000   2.1365   0.08156   0.07666  -0.1458   0.0041   0.6947
  17.000   2.1395   0.09332   0.08860  -0.1434   0.0042   0.7032
  18.000   2.1391   0.10564   0.10110  -0.1423   0.0040   0.7111
  19.000   2.1328   0.11870   0.11435  -0.1427   0.0038   0.7167
  20.000   2.1281   0.13152   0.12736  -0.1447   0.0038   0.7228
  21.000   2.1235   0.14420   0.14022  -0.1481   0.0038   0.7274
  22.000   2.1171   0.15708   0.15329  -0.1532   0.0037   0.7325
  23.000   2.1031   0.17088   0.16728  -0.1602   0.0034   0.7354
  24.000   2.0949   0.18381   0.18040  -0.1683   0.0033   0.7402
  25.000   2.0889   0.19614   0.19289  -0.1771   0.0033   0.7439
