  
       XFOIL         Version 6.99
  
 Calculated polar for: Profile50_-12                                   
  
 1 1 Reynolds number fixed          Mach number fixed         
  
 xtrf =   1.000 (top)        1.000 (bottom)  
 Mach =   0.000     Re =     9.800 e 6     Ncrit =   9.000
  
   alpha    CL        CD       CDp       CM     Top_Xtr  Bot_Xtr
  ------ -------- --------- --------- -------- -------- --------
  -9.000  -1.2175   0.01104   0.00592   0.0121   0.6273   0.0136
  -8.500  -1.1683   0.01046   0.00537   0.0133   0.6203   0.0169
  -8.000  -1.1167   0.01003   0.00494   0.0141   0.6122   0.0190
  -7.500  -1.0638   0.00964   0.00456   0.0147   0.6041   0.0210
  -7.000  -1.0096   0.00929   0.00422   0.0150   0.5966   0.0227
  -6.500  -0.9550   0.00898   0.00391   0.0154   0.5878   0.0242
  -6.000  -0.8995   0.00868   0.00361   0.0155   0.5811   0.0259
  -5.500  -0.8432   0.00842   0.00335   0.0156   0.5731   0.0270
  -5.000  -0.7869   0.00817   0.00310   0.0156   0.5647   0.0285
  -4.500  -0.7299   0.00792   0.00286   0.0155   0.5579   0.0300
  -4.000  -0.6725   0.00770   0.00265   0.0153   0.5504   0.0317
  -3.500  -0.6149   0.00749   0.00244   0.0151   0.5442   0.0336
  -3.000  -0.5571   0.00727   0.00225   0.0148   0.5373   0.0374
  -2.500  -0.4991   0.00704   0.00206   0.0144   0.5299   0.0446
  -2.000  -0.4412   0.00677   0.00186   0.0141   0.5240   0.0595
  -1.500  -0.3832   0.00651   0.00168   0.0136   0.5164   0.0813
  -1.000  -0.3250   0.00620   0.00150   0.0132   0.5112   0.1128
  -0.500  -0.2669   0.00591   0.00134   0.0127   0.5029   0.1542
   0.500  -0.1505   0.00522   0.00104   0.0115   0.4877   0.2754
   1.000  -0.0924   0.00487   0.00092   0.0109   0.4789   0.3502
   1.500  -0.0333   0.00460   0.00084   0.0101   0.4729   0.4114
   2.000   0.0265   0.00448   0.00081   0.0092   0.4644   0.4491
   2.500   0.0868   0.00444   0.00081   0.0083   0.4561   0.4686
   3.000   0.1472   0.00440   0.00081   0.0073   0.4487   0.4889
   3.500   0.2077   0.00440   0.00083   0.0062   0.4401   0.5056
   4.000   0.2681   0.00443   0.00087   0.0052   0.4294   0.5196
   4.500   0.3284   0.00446   0.00091   0.0041   0.4174   0.5362
   5.000   0.3887   0.00452   0.00097   0.0031   0.4060   0.5488
   5.500   0.4489   0.00460   0.00104   0.0020   0.3927   0.5596
   6.000   0.5086   0.00476   0.00115   0.0009   0.3715   0.5709
   6.500   0.5671   0.00505   0.00133  -0.0001   0.3344   0.5823
   7.000   0.6250   0.00542   0.00157  -0.0010   0.2942   0.5952
   7.500   0.6819   0.00591   0.00189  -0.0019   0.2435   0.6096
   8.500   0.7944   0.00701   0.00265  -0.0037   0.1520   0.6395
   9.000   0.8511   0.00746   0.00301  -0.0047   0.1240   0.6584
   9.500   0.9070   0.00798   0.00345  -0.0056   0.0955   0.6840
  10.000   0.9625   0.00849   0.00390  -0.0066   0.0738   0.7133
  10.500   1.0167   0.00912   0.00444  -0.0075   0.0524   0.7325
  11.000   1.0709   0.00957   0.00500  -0.0085   0.0370   0.8249
  11.500   1.1241   0.01020   0.00558  -0.0092   0.0287   0.8305
  12.000   1.1773   0.01080   0.00614  -0.0100   0.0250   0.8335
  12.500   1.2295   0.01144   0.00675  -0.0108   0.0226   0.8347
  13.000   1.2800   0.01216   0.00745  -0.0115   0.0205   0.8367
  13.500   1.3292   0.01297   0.00826  -0.0124   0.0196   0.8381
  14.000   1.3733   0.01418   0.00946  -0.0132   0.0172   0.8391
  14.500   1.3936   0.01603   0.01132  -0.0113   0.0151   0.8398
  15.000   1.4029   0.01867   0.01393  -0.0084   0.0084   0.8407
  15.500   1.4419   0.01970   0.01500  -0.0083   0.0122   0.8411
  16.000   1.4635   0.02186   0.01716  -0.0069   0.0104   0.8417
  16.500   1.4717   0.02498   0.02029  -0.0049   0.0067   0.8423
  17.000   1.4955   0.02722   0.02256  -0.0043   0.0069   0.8426
  17.500   1.5125   0.03015   0.02552  -0.0035   0.0061   0.8430
  18.000   1.5370   0.03261   0.02801  -0.0034   0.0067   0.8432
  18.500   1.5537   0.03586   0.03129  -0.0032   0.0062   0.8433
  19.000   1.5662   0.03955   0.03503  -0.0031   0.0059   0.8440
  19.500   1.5839   0.04296   0.03848  -0.0034   0.0058   0.8442
  20.000   1.6005   0.04656   0.04213  -0.0039   0.0059   0.8443
  20.500   1.6101   0.05090   0.04653  -0.0044   0.0057   0.8442
  21.000   1.6212   0.05520   0.05089  -0.0052   0.0056   0.8441
  21.500   1.6312   0.05979   0.05553  -0.0062   0.0054   0.8439
  22.000   1.6367   0.06499   0.06081  -0.0075   0.0055   0.8437
  22.500   1.6457   0.06990   0.06578  -0.0090   0.0053   0.8435
  23.000   1.6463   0.07596   0.07192  -0.0109   0.0055   0.8433
  23.500   1.6452   0.08228   0.07833  -0.0130   0.0051   0.8433
  24.000   1.6446   0.08878   0.08490  -0.0154   0.0051   0.8433
  24.500   1.6457   0.09514   0.09135  -0.0180   0.0054   0.8433
  25.000   1.6414   0.10231   0.09861  -0.0211   0.0051   0.8432
