  
       XFOIL         Version 6.99
  
 Calculated polar for: Profile40_12                                    
  
 1 1 Reynolds number fixed          Mach number fixed         
  
 xtrf =   1.000 (top)        1.000 (bottom)  
 Mach =   0.000     Re =     9.800 e 6     Ncrit =   9.000
  
   alpha    CL        CD       CDp       CM     Top_Xtr  Bot_Xtr
  ------ -------- --------- --------- -------- -------- --------
  -9.000  -0.1754   0.00999   0.00570  -0.1465   0.5151   0.1193
  -8.500  -0.1031   0.00811   0.00401  -0.1539   0.5026   0.1831
  -8.000  -0.0403   0.00675   0.00280  -0.1577   0.4893   0.2463
  -7.000   0.0769   0.00587   0.00202  -0.1601   0.4683   0.3151
  -6.500   0.1353   0.00570   0.00187  -0.1608   0.4544   0.3439
  -6.000   0.1952   0.00564   0.00181  -0.1617   0.4466   0.3603
  -5.500   0.2559   0.00560   0.00178  -0.1627   0.4373   0.3780
  -5.000   0.3148   0.00570   0.00181  -0.1633   0.4244   0.3764
  -4.500   0.3771   0.00569   0.00180  -0.1646   0.4190   0.3921
  -4.000   0.4367   0.00579   0.00184  -0.1652   0.4102   0.3906
  -3.500   0.5001   0.00580   0.00186  -0.1668   0.4056   0.4040
  -3.000   0.5632   0.00585   0.00191  -0.1682   0.3989   0.4148
  -2.500   0.6249   0.00596   0.00198  -0.1694   0.3891   0.4182
  -2.000   0.6865   0.00607   0.00205  -0.1705   0.3817   0.4215
  -1.500   0.7519   0.00616   0.00213  -0.1724   0.3733   0.4334
  -1.000   0.8105   0.00630   0.00222  -0.1729   0.3682   0.4271
  -0.500   0.8723   0.00657   0.00238  -0.1741   0.3426   0.4333
  -0.000   0.9369   0.00653   0.00242  -0.1758   0.3561   0.4349
   0.500   1.0044   0.00670   0.00256  -0.1782   0.3429   0.4515
   1.000   1.0677   0.00680   0.00267  -0.1797   0.3406   0.4549
   1.500   1.1307   0.00704   0.00284  -0.1812   0.3259   0.4597
   2.000   1.1960   0.00716   0.00297  -0.1831   0.3228   0.4660
   2.500   1.2571   0.00751   0.00321  -0.1842   0.3022   0.4674
   3.000   1.3196   0.00776   0.00342  -0.1856   0.2903   0.4722
   4.000   1.4346   0.00852   0.00401  -0.1865   0.2524   0.4807
   4.500   1.4744   0.01003   0.00501  -0.1839   0.1671   0.4823
   5.000   1.5395   0.00961   0.00484  -0.1854   0.2054   0.4853
   6.000   1.6209   0.01151   0.00630  -0.1802   0.1295   0.4938
   6.500   1.6612   0.01238   0.00703  -0.1776   0.1061   0.4972
   7.000   1.7087   0.01282   0.00747  -0.1762   0.1043   0.4985
   7.500   1.7449   0.01385   0.00838  -0.1730   0.0834   0.5021
   8.000   1.7793   0.01496   0.00940  -0.1697   0.0660   0.5066
   8.500   1.8193   0.01578   0.01019  -0.1673   0.0603   0.5102
   9.000   1.8517   0.01697   0.01133  -0.1638   0.0495   0.5131
   9.500   1.8787   0.01845   0.01273  -0.1596   0.0376   0.5144
  10.000   1.9063   0.01993   0.01417  -0.1556   0.0303   0.5149
  10.500   1.9409   0.02104   0.01532  -0.1528   0.0308   0.5197
  11.000   1.9700   0.02250   0.01679  -0.1494   0.0284   0.5242
  11.500   1.9961   0.02414   0.01845  -0.1456   0.0258   0.5272
  12.000   2.0172   0.02615   0.02048  -0.1415   0.0226   0.5294
  12.500   2.0356   0.02844   0.02278  -0.1373   0.0203   0.5306
  13.000   2.0568   0.03070   0.02509  -0.1338   0.0201   0.5315
  13.500   2.0682   0.03393   0.02836  -0.1298   0.0174   0.5383
  14.000   2.0729   0.03829   0.03278  -0.1264   0.0144   0.5419
  14.500   2.0871   0.04224   0.03681  -0.1244   0.0148   0.5450
  15.000   2.0925   0.04727   0.04191  -0.1225   0.0141   0.5465
  15.500   2.0949   0.05274   0.04747  -0.1210   0.0139   0.5475
  16.500   2.0696   0.06734   0.06229  -0.1184   0.0119   0.5556
  17.000   2.0524   0.07539   0.07046  -0.1177   0.0113   0.5588
  17.500   2.0435   0.08249   0.07767  -0.1173   0.0115   0.5613
  18.000   2.0246   0.09095   0.08624  -0.1173   0.0111   0.5629
  18.500   2.0058   0.09948   0.09488  -0.1177   0.0105   0.5638
  19.000   1.9912   0.10755   0.10306  -0.1185   0.0106   0.5645
  19.500   1.9793   0.11523   0.11084  -0.1195   0.0101   0.5694
  20.000   1.9681   0.12299   0.11870  -0.1210   0.0097   0.5738
  20.500   1.9682   0.13270   0.12852  -0.1270   0.0087   0.5771
  21.000   1.9305   0.14085   0.13674  -0.1263   0.0074   0.5784
  21.500   1.9388   0.14578   0.14175  -0.1278   0.0085   0.5807
  22.000   1.9367   0.15543   0.15148  -0.1346   0.0070   0.5816
  22.500   1.9212   0.16110   0.15724  -0.1346   0.0072   0.5858
  23.500   1.9148   0.17474   0.17105  -0.1419   0.0070   0.5942
  24.000   1.9123   0.18147   0.17784  -0.1460   0.0063   0.5969
