  
       XFOIL         Version 6.99
  
 Calculated polar for: Profile40                                       
  
 1 1 Reynolds number fixed          Mach number fixed         
  
 xtrf =   1.000 (top)        1.000 (bottom)  
 Mach =   0.000     Re =     9.800 e 6     Ncrit =   9.000
  
   alpha    CL        CD       CDp       CM     Top_Xtr  Bot_Xtr
  ------ -------- --------- --------- -------- -------- --------
  -9.000  -0.8517   0.01136   0.00635  -0.0402   0.5343   0.0214
  -8.500  -0.7921   0.01063   0.00560  -0.0422   0.5207   0.0252
  -8.000  -0.7339   0.00990   0.00490  -0.0438   0.5091   0.0356
  -7.500  -0.6752   0.00942   0.00442  -0.0450   0.4984   0.0426
  -7.000  -0.6190   0.00854   0.00370  -0.0462   0.4897   0.0775
  -6.500  -0.5623   0.00792   0.00318  -0.0469   0.4820   0.1079
  -6.000  -0.5075   0.00720   0.00264  -0.0473   0.4700   0.1563
  -5.500  -0.4520   0.00664   0.00222  -0.0476   0.4624   0.1993
  -5.000  -0.4007   0.00585   0.00169  -0.0471   0.4500   0.2751
  -4.500  -0.3440   0.00547   0.00144  -0.0473   0.4470   0.3136
  -4.000  -0.2869   0.00516   0.00124  -0.0475   0.4350   0.3551
  -3.500  -0.2270   0.00505   0.00115  -0.0481   0.4256   0.3741
  -3.000  -0.1657   0.00506   0.00113  -0.0490   0.4188   0.3760
  -2.500  -0.1049   0.00498   0.00107  -0.0498   0.4125   0.3949
  -2.000  -0.0434   0.00497   0.00105  -0.0508   0.4052   0.4005
  -1.500   0.0184   0.00498   0.00104  -0.0517   0.4012   0.4055
  -1.000   0.0802   0.00497   0.00104  -0.0528   0.3913   0.4184
  -0.500   0.1421   0.00502   0.00105  -0.0538   0.3839   0.4197
  -0.000   0.2045   0.00503   0.00107  -0.0550   0.3763   0.4309
   0.500   0.2665   0.00510   0.00110  -0.0560   0.3691   0.4342
   1.000   0.3290   0.00515   0.00114  -0.0572   0.3624   0.4400
   1.500   0.3919   0.00517   0.00117  -0.0585   0.3579   0.4458
   2.000   0.4538   0.00530   0.00125  -0.0596   0.3440   0.4486
   2.500   0.5166   0.00539   0.00131  -0.0609   0.3371   0.4546
   3.000   0.5799   0.00543   0.00137  -0.0623   0.3350   0.4596
   3.500   0.6420   0.00558   0.00147  -0.0635   0.3224   0.4627
   4.000   0.7047   0.00567   0.00156  -0.0648   0.3170   0.4656
   4.500   0.7679   0.00580   0.00167  -0.0662   0.3078   0.4719
   5.000   0.8285   0.00620   0.00192  -0.0674   0.2740   0.4764
   5.500   0.8912   0.00627   0.00201  -0.0687   0.2748   0.4777
   6.000   0.9545   0.00639   0.00213  -0.0702   0.2712   0.4824
   6.500   1.0168   0.00667   0.00236  -0.0716   0.2540   0.4869
   7.000   1.0747   0.00738   0.00284  -0.0726   0.2084   0.4906
   7.500   1.1368   0.00755   0.00300  -0.0739   0.2055   0.4923
   8.000   1.1950   0.00822   0.00350  -0.0749   0.1721   0.4965
   8.500   1.2537   0.00887   0.00400  -0.0760   0.1431   0.5006
   9.500   1.3686   0.01055   0.00534  -0.0783   0.0847   0.5068
  10.500   1.4810   0.01163   0.00633  -0.0796   0.0689   0.5121
  11.000   1.5311   0.01258   0.00717  -0.0796   0.0508   0.5175
  11.500   1.5849   0.01308   0.00768  -0.0798   0.0501   0.5207
  12.000   1.6318   0.01394   0.00848  -0.0792   0.0422   0.5225
  12.500   1.6729   0.01510   0.00958  -0.0780   0.0324   0.5237
  13.000   1.7099   0.01597   0.01048  -0.0760   0.0318   0.5301
  13.500   1.7362   0.01770   0.01220  -0.0737   0.0262   0.5338
  14.000   1.7702   0.01928   0.01382  -0.0727   0.0257   0.5369
  14.500   1.7940   0.02189   0.01644  -0.0718   0.0219   0.5382
  15.000   1.8144   0.02506   0.01964  -0.0711   0.0190   0.5414
  15.500   1.8400   0.02789   0.02253  -0.0710   0.0195   0.5469
  16.000   1.8447   0.03270   0.02739  -0.0704   0.0158   0.5508
  16.500   1.8621   0.03632   0.03109  -0.0701   0.0171   0.5534
  17.000   1.8469   0.04325   0.03807  -0.0696   0.0132   0.5541
  17.500   1.8607   0.04754   0.04246  -0.0698   0.0145   0.5614
  18.000   1.8475   0.05494   0.04995  -0.0702   0.0126   0.5674
  18.500   1.8557   0.05998   0.05510  -0.0706   0.0139   0.5696
  19.000   1.8687   0.06854   0.06375  -0.0773   0.0126   0.5703
