  
       XFOIL         Version 6.99
  
 Calculated polar for: Profile14                                       
  
 1 1 Reynolds number fixed          Mach number fixed         
  
 xtrf =   1.000 (top)        1.000 (bottom)  
 Mach =   0.000     Re =     9.800 e 6     Ncrit =   9.000
  
   alpha    CL        CD       CDp       CM     Top_Xtr  Bot_Xtr
  ------ -------- --------- --------- -------- -------- --------
  -9.000  -0.4909   0.02408   0.01946  -0.0708   0.4416   0.2245
  -8.500  -0.4670   0.02194   0.01730  -0.0703   0.4294   0.2326
  -8.000  -0.4366   0.02021   0.01555  -0.0701   0.4222   0.2395
  -7.500  -0.4034   0.01873   0.01406  -0.0699   0.4129   0.2436
  -7.000  -0.3986   0.01621   0.01160  -0.0666   0.4092   0.2600
  -6.500  -0.4026   0.01447   0.00986  -0.0606   0.4013   0.2690
  -6.000  -0.3632   0.01266   0.00810  -0.0627   0.3945   0.2852
  -5.500  -0.2975   0.01170   0.00713  -0.0677   0.3838   0.2964
  -5.000  -0.2252   0.01120   0.00662  -0.0727   0.3760   0.3007
  -4.500  -0.1434   0.01046   0.00588  -0.0803   0.3642   0.3149
  -4.000  -0.0567   0.00987   0.00532  -0.0882   0.3597   0.3278
  -3.500   0.0206   0.00972   0.00512  -0.0934   0.3504   0.3306
  -3.000   0.1112   0.00927   0.00470  -0.1019   0.3448   0.3446
  -2.500   0.1988   0.00904   0.00445  -0.1094   0.3334   0.3577
  -2.000   0.2737   0.00904   0.00442  -0.1137   0.3263   0.3599
  -1.500   0.3488   0.00909   0.00441  -0.1182   0.3150   0.3667
  -1.000   0.4252   0.00907   0.00439  -0.1228   0.3107   0.3717
  -0.500   0.4981   0.00915   0.00444  -0.1267   0.3040   0.3773
  -0.000   0.5739   0.00918   0.00447  -0.1312   0.2965   0.3863
   0.500   0.6468   0.00923   0.00452  -0.1349   0.2940   0.3923
   1.000   0.7187   0.00938   0.00464  -0.1386   0.2853   0.4014
   1.500   0.7877   0.00952   0.00477  -0.1415   0.2786   0.4065
   2.000   0.8580   0.00967   0.00491  -0.1448   0.2739   0.4149
   2.500   0.9224   0.00992   0.00511  -0.1469   0.2646   0.4189
   3.000   0.9884   0.01011   0.00530  -0.1492   0.2611   0.4256
   3.500   1.0520   0.01036   0.00554  -0.1511   0.2565   0.4319
   4.000   1.1104   0.01066   0.00582  -0.1519   0.2501   0.4347
   4.500   1.1551   0.01096   0.00614  -0.1500   0.2483   0.4401
   5.000   1.2076   0.01153   0.00669  -0.1499   0.2414   0.4464
   5.500   1.2649   0.01195   0.00710  -0.1506   0.2382   0.4498
   6.000   1.3193   0.01243   0.00758  -0.1508   0.2346   0.4529
   6.500   1.3743   0.01294   0.00811  -0.1513   0.2317   0.4587
   7.000   1.4223   0.01371   0.00886  -0.1507   0.2257   0.4633
   7.500   1.4706   0.01447   0.00961  -0.1502   0.2199   0.4656
   8.000   1.5216   0.01516   0.01030  -0.1501   0.2186   0.4687
   8.500   1.5648   0.01626   0.01140  -0.1492   0.2133   0.4750
   9.000   1.6095   0.01735   0.01250  -0.1486   0.2076   0.4795
   9.500   1.6562   0.01837   0.01353  -0.1483   0.2061   0.4822
  10.000   1.6931   0.01997   0.01513  -0.1470   0.2010   0.4891
  10.500   1.7357   0.02137   0.01656  -0.1467   0.1984   0.4938
  11.000   1.7763   0.02291   0.01812  -0.1461   0.1953   0.4968
  11.500   1.8101   0.02488   0.02010  -0.1450   0.1912   0.4997
  12.000   1.8337   0.02768   0.02290  -0.1432   0.1835   0.5067
  12.500   1.8714   0.02964   0.02492  -0.1430   0.1829   0.5110
  13.000   1.8984   0.03233   0.02762  -0.1418   0.1799   0.5128
  13.500   1.9185   0.03557   0.03088  -0.1404   0.1758   0.5164
  14.000   1.9401   0.03892   0.03428  -0.1395   0.1719   0.5219
  14.500   1.9663   0.04195   0.03738  -0.1390   0.1710   0.5262
  15.000   1.9563   0.04778   0.04321  -0.1364   0.1618   0.5284
  15.500   1.9770   0.05130   0.04679  -0.1359   0.1610   0.5319
  16.000   1.9958   0.05509   0.05066  -0.1355   0.1606   0.5377
  16.500   1.9983   0.06027   0.05593  -0.1345   0.1585   0.5425
  17.000   1.9896   0.06643   0.06213  -0.1331   0.1548   0.5446
  17.500   1.9779   0.07292   0.06868  -0.1320   0.1486   0.5499
  18.000   1.9600   0.08026   0.07611  -0.1312   0.1452   0.5549
  18.500   1.9823   0.08371   0.07964  -0.1315   0.1464   0.5589
  19.000   1.9429   0.09310   0.08910  -0.1307   0.1392   0.5602
  19.500   1.9385   0.09918   0.09525  -0.1310   0.1376   0.5609
  20.000   1.9251   0.10621   0.10234  -0.1316   0.1349   0.5647
  20.500   1.9411   0.11033   0.10653  -0.1326   0.1345   0.5711
  21.000   1.9315   0.11709   0.11335  -0.1339   0.1305   0.5740
  21.500   1.9328   0.12263   0.11897  -0.1354   0.1298   0.5763
  22.000   1.9216   0.12958   0.12599  -0.1373   0.1264   0.5796
  23.000   1.8999   0.14361   0.14015  -0.1426   0.1192   0.5886
  23.500   1.8835   0.15123   0.14781  -0.1458   0.1154   0.5911
  24.000   1.8927   0.15584   0.15244  -0.1484   0.1114   0.5927
  25.000   1.9117   0.16503   0.16175  -0.1542   0.1100   0.5998
