  
       XFOIL         Version 6.99
  
 Calculated polar for: Profile16_-12                                   
  
 1 1 Reynolds number fixed          Mach number fixed         
  
 xtrf =   1.000 (top)        1.000 (bottom)  
 Mach =   0.000     Re =     9.800 e 6     Ncrit =   9.000
  
   alpha    CL        CD       CDp       CM     Top_Xtr  Bot_Xtr
  ------ -------- --------- --------- -------- -------- --------
  -9.000  -1.5510   0.01902   0.01440   0.0672   0.4609   0.1948
  -8.500  -1.5321   0.01526   0.01060   0.0667   0.4563   0.2018
  -8.000  -1.4750   0.01370   0.00904   0.0633   0.4446   0.2104
  -7.500  -1.4084   0.01277   0.00812   0.0595   0.4351   0.2163
  -7.000  -1.3368   0.01184   0.00720   0.0547   0.4238   0.2271
  -6.500  -1.2652   0.01123   0.00662   0.0508   0.4142   0.2365
  -6.000  -1.1944   0.01085   0.00624   0.0475   0.4028   0.2432
  -5.500  -1.1225   0.01040   0.00582   0.0439   0.3941   0.2533
  -5.000  -1.0512   0.01017   0.00558   0.0408   0.3833   0.2597
  -4.500  -0.9788   0.00983   0.00527   0.0374   0.3746   0.2687
  -4.000  -0.9062   0.00955   0.00501   0.0339   0.3660   0.2793
  -3.500  -0.8345   0.00941   0.00486   0.0310   0.3565   0.2838
  -3.000  -0.7615   0.00915   0.00464   0.0276   0.3500   0.2955
  -2.500  -0.6894   0.00903   0.00451   0.0245   0.3392   0.3031
  -2.000  -0.6168   0.00886   0.00436   0.0213   0.3336   0.3113
  -1.500  -0.5450   0.00881   0.00429   0.0184   0.3219   0.3176
  -1.000  -0.4723   0.00868   0.00417   0.0152   0.3167   0.3264
  -0.500  -0.4008   0.00868   0.00415   0.0124   0.3069   0.3298
  -0.000  -0.3282   0.00856   0.00406   0.0093   0.3032   0.3398
   0.500  -0.2566   0.00858   0.00405   0.0065   0.2951   0.3441
   1.000  -0.1843   0.00852   0.00400   0.0034   0.2890   0.3541
   1.500  -0.1126   0.00852   0.00400   0.0006   0.2840   0.3597
   2.000  -0.0406   0.00853   0.00401  -0.0024   0.2748   0.3693
   2.500   0.0311   0.00852   0.00401  -0.0052   0.2724   0.3753
   3.000   0.1023   0.00860   0.00406  -0.0080   0.2660   0.3814
   3.500   0.1741   0.00862   0.00409  -0.0109   0.2595   0.3900
   4.000   0.2450   0.00869   0.00415  -0.0135   0.2562   0.3932
   4.500   0.3164   0.00879   0.00424  -0.0164   0.2485   0.4023
   5.000   0.3874   0.00885   0.00431  -0.0191   0.2450   0.4079
   5.500   0.4579   0.00897   0.00441  -0.0217   0.2412   0.4120
   6.000   0.5289   0.00910   0.00453  -0.0245   0.2343   0.4210
   6.500   0.5994   0.00920   0.00463  -0.0271   0.2318   0.4256
   7.000   0.6695   0.00934   0.00476  -0.0297   0.2284   0.4303
   7.500   0.7398   0.00952   0.00493  -0.0324   0.2227   0.4382
   8.000   0.8097   0.00966   0.00507  -0.0350   0.2195   0.4422
   8.500   0.8791   0.00984   0.00523  -0.0374   0.2167   0.4439
   9.000   0.9484   0.01008   0.00545  -0.0400   0.2120   0.4496
   9.500   1.0180   0.01026   0.00564  -0.0425   0.2077   0.4565
  10.000   1.0870   0.01044   0.00583  -0.0450   0.2057   0.4604
  10.500   1.1551   0.01076   0.00610  -0.0474   0.2010   0.4619
  11.000   1.2234   0.01103   0.00636  -0.0498   0.1961   0.4668
  11.500   1.2918   0.01124   0.00660  -0.0522   0.1944   0.4740
  12.000   1.3591   0.01161   0.00694  -0.0546   0.1899   0.4786
  12.500   1.4258   0.01197   0.00728  -0.0569   0.1849   0.4805
  13.000   1.4926   0.01228   0.00759  -0.0591   0.1830   0.4853
  13.500   1.5584   0.01274   0.00804  -0.0614   0.1786   0.4929
  14.000   1.6236   0.01317   0.00847  -0.0636   0.1743   0.4974
  14.500   1.6883   0.01358   0.00888  -0.0657   0.1726   0.4997
  15.000   1.7513   0.01418   0.00946  -0.0678   0.1690   0.5046
  15.500   1.8135   0.01487   0.01017  -0.0700   0.1642   0.5127
  16.000   1.8759   0.01552   0.01084  -0.0723   0.1627   0.5181
  16.500   1.9341   0.01669   0.01200  -0.0748   0.1590   0.5199
  17.000   1.9864   0.01843   0.01376  -0.0775   0.1544   0.5272
  17.500   1.9984   0.02208   0.01750  -0.0771   0.1534   0.5345
  18.000   1.9977   0.02650   0.02200  -0.0756   0.1512   0.5387
  18.500   1.9867   0.03198   0.02753  -0.0743   0.1475   0.5403
  19.000   1.9908   0.03651   0.03213  -0.0738   0.1448   0.5441
  19.500   1.9924   0.04147   0.03718  -0.0737   0.1426   0.5525
  20.000   1.9811   0.04770   0.04347  -0.0737   0.1395   0.5578
  20.500   1.9572   0.05536   0.05123  -0.0738   0.1360   0.5604
  21.000   1.9668   0.05988   0.05581  -0.0743   0.1349   0.5618
  21.500   1.9522   0.06684   0.06285  -0.0750   0.1328   0.5646
  22.000   1.9076   0.07704   0.07317  -0.0761   0.1294   0.5698
  22.500   1.9117   0.08238   0.07858  -0.0772   0.1272   0.5764
  23.000   1.8995   0.08948   0.08578  -0.0786   0.1260   0.5808
  23.500   1.8777   0.09774   0.09413  -0.0805   0.1239   0.5830
  24.000   1.8476   0.10698   0.10343  -0.0828   0.1200   0.5839
  24.500   1.8351   0.11448   0.11102  -0.0853   0.1186   0.5863
