  
       XFOIL         Version 6.99
  
 Calculated polar for: Profile40_-12                                   
  
 1 1 Reynolds number fixed          Mach number fixed         
  
 xtrf =   1.000 (top)        1.000 (bottom)  
 Mach =   0.000     Re =     9.800 e 6     Ncrit =   9.000
  
   alpha    CL        CD       CDp       CM     Top_Xtr  Bot_Xtr
  ------ -------- --------- --------- -------- -------- --------
  -9.000  -1.4622   0.01517   0.00973   0.0552   0.5460   0.0084
  -8.500  -1.4314   0.01419   0.00874   0.0586   0.5406   0.0097
  -8.000  -1.3862   0.01352   0.00805   0.0600   0.5288   0.0099
  -7.500  -1.3383   0.01293   0.00743   0.0611   0.5189   0.0101
  -7.000  -1.2874   0.01246   0.00695   0.0618   0.5102   0.0091
  -6.500  -1.2390   0.01179   0.00630   0.0628   0.4994   0.0136
  -6.000  -1.1853   0.01141   0.00591   0.0632   0.4921   0.0122
  -5.500  -1.1317   0.01101   0.00550   0.0635   0.4837   0.0124
  -5.000  -1.0772   0.01063   0.00513   0.0638   0.4771   0.0124
  -4.500  -1.0293   0.00973   0.00438   0.0650   0.4641   0.0433
  -4.000  -0.9724   0.00949   0.00412   0.0649   0.4559   0.0427
  -3.000  -0.8716   0.00794   0.00299   0.0667   0.4442   0.1342
  -2.000  -0.7664   0.00672   0.00214   0.0680   0.4280   0.2281
  -1.500  -0.7111   0.00632   0.00187   0.0682   0.4175   0.2646
  -1.000  -0.6606   0.00554   0.00143   0.0693   0.4148   0.3436
  -0.500  -0.6030   0.00527   0.00127   0.0691   0.4068   0.3760
  -0.000  -0.5433   0.00514   0.00118   0.0686   0.4007   0.3914
   0.500  -0.4824   0.00510   0.00114   0.0679   0.3964   0.3978
   1.000  -0.4217   0.00505   0.00110   0.0672   0.3863   0.4096
   1.500  -0.3610   0.00498   0.00105   0.0664   0.3817   0.4215
   2.000  -0.2992   0.00502   0.00105   0.0655   0.3759   0.4197
   2.500  -0.2381   0.00494   0.00102   0.0646   0.3704   0.4378
   3.000  -0.1762   0.00495   0.00103   0.0636   0.3670   0.4375
   3.500  -0.1145   0.00497   0.00104   0.0626   0.3520   0.4518
   4.000  -0.0523   0.00504   0.00107   0.0615   0.3502   0.4441
   4.500   0.0097   0.00504   0.00109   0.0604   0.3459   0.4520
   5.000   0.0720   0.00504   0.00112   0.0592   0.3391   0.4647
   5.500   0.1339   0.00525   0.00120   0.0580   0.3235   0.4468
   6.000   0.1960   0.00532   0.00124   0.0569   0.3248   0.4367
   6.500   0.2593   0.00520   0.00128   0.0553   0.3198   0.4792
   7.000   0.3209   0.00557   0.00148   0.0539   0.2825   0.4764
   7.500   0.3840   0.00549   0.00149   0.0526   0.2933   0.4844
   8.000   0.4464   0.00565   0.00162   0.0511   0.2798   0.4894
   8.500   0.5092   0.00579   0.00175   0.0495   0.2707   0.4942
   9.000   0.5714   0.00607   0.00196   0.0479   0.2494   0.4974
   9.500   0.6332   0.00643   0.00222   0.0463   0.2267   0.4996
  10.000   0.6942   0.00694   0.00259   0.0446   0.1940   0.5004
  10.500   0.7552   0.00746   0.00299   0.0428   0.1675   0.4984
  11.000   0.8184   0.00777   0.00329   0.0408   0.1565   0.5111
  11.500   0.8790   0.00824   0.00366   0.0391   0.1401   0.5079
  12.000   0.9398   0.00917   0.00443   0.0365   0.1040   0.5164
  12.500   1.0006   0.00982   0.00500   0.0343   0.0897   0.5188
  13.000   1.0623   0.01051   0.00564   0.0317   0.0765   0.5242
  13.500   1.1242   0.01139   0.00646   0.0286   0.0648   0.5286
  14.000   1.1859   0.01248   0.00750   0.0249   0.0537   0.5315
  14.500   1.2467   0.01393   0.00891   0.0204   0.0443   0.5331
  15.000   1.3087   0.01598   0.01092   0.0140   0.0355   0.5392
  15.500   1.3608   0.01842   0.01335   0.0085   0.0295   0.5457
  16.000   1.3987   0.02050   0.01546   0.0066   0.0294   0.5482
  16.500   1.4261   0.02347   0.01845   0.0048   0.0260   0.5505
  17.000   1.4478   0.02692   0.02192   0.0031   0.0229   0.5579
  17.500   1.4675   0.03050   0.02554   0.0017   0.0208   0.5637
  18.000   1.4916   0.03369   0.02879   0.0004   0.0216   0.5666
  18.500   1.4959   0.03881   0.03393  -0.0011   0.0175   0.5695
  19.000   1.5104   0.04308   0.03828  -0.0026   0.0172   0.5781
  19.500   1.5211   0.04774   0.04300  -0.0041   0.0168   0.5828
  20.000   1.5155   0.05408   0.04937  -0.0057   0.0137   0.5841
  20.500   1.5259   0.05888   0.05425  -0.0074   0.0138   0.5945
  21.000   1.5246   0.06502   0.06047  -0.0092   0.0132   0.5987
  21.500   1.5395   0.06931   0.06484  -0.0107   0.0142   0.6015
  22.000   1.5305   0.07648   0.07208  -0.0130   0.0129   0.6084
  22.500   1.5349   0.08216   0.07784  -0.0150   0.0126   0.6147
  23.000   1.5343   0.08844   0.08419  -0.0172   0.0124   0.6182
  23.500   1.5330   0.09495   0.09079  -0.0197   0.0123   0.6243
  24.000   1.5283   0.10192   0.09785  -0.0224   0.0117   0.6316
  24.500   1.5176   0.10981   0.10582  -0.0256   0.0107   0.6355
  25.000   1.5138   0.11686   0.11296  -0.0287   0.0104   0.6438
