  
       XFOIL         Version 6.99
  
 Calculated polar for: Profile18_-12                                   
  
 1 1 Reynolds number fixed          Mach number fixed         
  
 xtrf =   1.000 (top)        1.000 (bottom)  
 Mach =   0.000     Re =     9.800 e 6     Ncrit =   9.000
  
   alpha    CL        CD       CDp       CM     Top_Xtr  Bot_Xtr
  ------ -------- --------- --------- -------- -------- --------
  -9.000  -1.6037   0.01476   0.01017   0.0684   0.4789   0.2018
  -8.500  -1.5450   0.01326   0.00869   0.0648   0.4702   0.2106
  -8.000  -1.4781   0.01243   0.00784   0.0611   0.4577   0.2171
  -7.500  -1.4088   0.01161   0.00704   0.0571   0.4482   0.2260
  -7.000  -1.3401   0.01104   0.00649   0.0538   0.4347   0.2360
  -6.500  -1.2711   0.01070   0.00615   0.0509   0.4264   0.2411
  -6.000  -1.2009   0.01026   0.00573   0.0476   0.4133   0.2515
  -5.500  -1.1309   0.00997   0.00546   0.0447   0.4065   0.2585
  -5.000  -1.0603   0.00969   0.00518   0.0416   0.3944   0.2659
  -4.500  -0.9895   0.00942   0.00493   0.0386   0.3858   0.2748
  -4.000  -0.9187   0.00924   0.00473   0.0357   0.3730   0.2813
  -3.500  -0.8471   0.00896   0.00450   0.0325   0.3673   0.2930
  -3.000  -0.7765   0.00886   0.00438   0.0297   0.3583   0.2988
  -2.500  -0.7050   0.00866   0.00421   0.0267   0.3503   0.3080
  -2.000  -0.6343   0.00859   0.00412   0.0240   0.3416   0.3135
  -1.500  -0.5628   0.00844   0.00399   0.0210   0.3323   0.3230
  -1.000  -0.4922   0.00841   0.00393   0.0183   0.3247   0.3276
  -0.500  -0.4208   0.00831   0.00384   0.0154   0.3161   0.3371
  -0.000  -0.3502   0.00828   0.00380   0.0127   0.3110   0.3410
   0.500  -0.2791   0.00825   0.00377   0.0099   0.3014   0.3499
   1.000  -0.2082   0.00819   0.00373   0.0072   0.2983   0.3566
   1.500  -0.1373   0.00819   0.00372   0.0044   0.2907   0.3654
   2.000  -0.0665   0.00819   0.00371   0.0017   0.2839   0.3715
   2.500   0.0040   0.00821   0.00373  -0.0010   0.2794   0.3782
   3.000   0.0748   0.00825   0.00376  -0.0037   0.2700   0.3866
   3.500   0.1449   0.00829   0.00380  -0.0063   0.2675   0.3893
   4.000   0.2155   0.00836   0.00386  -0.0090   0.2609   0.3985
   4.500   0.2857   0.00842   0.00392  -0.0116   0.2547   0.4044
   5.000   0.3556   0.00850   0.00399  -0.0141   0.2515   0.4088
   5.500   0.4259   0.00861   0.00409  -0.0168   0.2452   0.4176
   6.000   0.4956   0.00870   0.00418  -0.0193   0.2407   0.4220
   6.500   0.5651   0.00882   0.00429  -0.0217   0.2371   0.4267
   7.000   0.6349   0.00897   0.00443  -0.0243   0.2312   0.4349
   7.500   0.7042   0.00909   0.00455  -0.0268   0.2276   0.4390
   8.000   0.7732   0.00924   0.00469  -0.0292   0.2247   0.4420
   8.500   0.8423   0.00944   0.00487  -0.0317   0.2192   0.4498
   9.000   0.9112   0.00960   0.00503  -0.0341   0.2153   0.4548
   9.500   0.9797   0.00976   0.00520  -0.0365   0.2133   0.4573
  10.000   1.0478   0.01003   0.00543  -0.0388   0.2081   0.4611
  10.500   1.1161   0.01025   0.00565  -0.0412   0.2032   0.4689
  11.000   1.1840   0.01046   0.00587  -0.0436   0.2005   0.4737
  11.500   1.2510   0.01082   0.00619  -0.0459   0.1947   0.4757
  12.000   1.3181   0.01107   0.00644  -0.0481   0.1913   0.4798
  12.500   1.3852   0.01133   0.00671  -0.0504   0.1888   0.4871
  13.000   1.4511   0.01174   0.00710  -0.0526   0.1837   0.4923
  13.500   1.5169   0.01207   0.00742  -0.0548   0.1802   0.4945
  14.000   1.5821   0.01243   0.00778  -0.0569   0.1776   0.4986
  14.500   1.6462   0.01296   0.00829  -0.0590   0.1725   0.5068
  15.000   1.7102   0.01338   0.00873  -0.0611   0.1694   0.5118
  15.500   1.7728   0.01391   0.00925  -0.0630   0.1665   0.5141
  16.000   1.8336   0.01468   0.01000  -0.0651   0.1616   0.5195
  16.500   1.8951   0.01536   0.01071  -0.0673   0.1593   0.5273
  17.000   1.9537   0.01640   0.01176  -0.0697   0.1562   0.5324
  17.500   2.0038   0.01832   0.01368  -0.0725   0.1506   0.5344
  18.000   2.0134   0.02206   0.01751  -0.0719   0.1493   0.5408
  18.500   2.0157   0.02626   0.02179  -0.0706   0.1472   0.5480
  19.000   2.0147   0.03089   0.02647  -0.0695   0.1441   0.5525
  19.500   2.0137   0.03577   0.03142  -0.0689   0.1408   0.5545
  20.000   2.0190   0.04034   0.03607  -0.0688   0.1397   0.5558
  20.500   2.0097   0.04639   0.04219  -0.0687   0.1373   0.5626
  21.000   1.9941   0.05314   0.04902  -0.0689   0.1338   0.5685
  21.500   1.9872   0.05925   0.05523  -0.0693   0.1316   0.5733
  22.000   1.9786   0.06559   0.06166  -0.0700   0.1303   0.5757
  22.500   1.9579   0.07324   0.06938  -0.0709   0.1279   0.5767
  23.000   1.9321   0.08158   0.07780  -0.0721   0.1242   0.5794
  23.500   1.9180   0.08885   0.08518  -0.0735   0.1228   0.5857
  24.000   1.8993   0.09676   0.09319  -0.0754   0.1209   0.5907
  24.500   1.8687   0.10605   0.10256  -0.0778   0.1175   0.5943
  25.000   1.8499   0.11422   0.11081  -0.0804   0.1148   0.5972
