  
       XFOIL         Version 6.99
  
 Calculated polar for: Profile14_-12                                   
  
 1 1 Reynolds number fixed          Mach number fixed         
  
 xtrf =   1.000 (top)        1.000 (bottom)  
 Mach =   0.000     Re =     9.800 e 6     Ncrit =   9.000
  
   alpha    CL        CD       CDp       CM     Top_Xtr  Bot_Xtr
  ------ -------- --------- --------- -------- -------- --------
  -9.000  -0.9874   0.03693   0.03214   0.0164   0.4651   0.1737
  -8.500  -0.9665   0.03389   0.02907   0.0167   0.4561   0.1787
  -8.000  -0.9504   0.03058   0.02579   0.0174   0.4522   0.1883
  -7.500  -0.9294   0.02771   0.02291   0.0179   0.4432   0.1966
  -7.000  -0.9187   0.02436   0.01957   0.0193   0.4331   0.2092
  -6.500  -0.9076   0.02116   0.01637   0.0209   0.4243   0.2207
  -6.000  -0.8757   0.01921   0.01441   0.0212   0.4184   0.2273
  -5.500  -0.8479   0.01705   0.01224   0.0218   0.4103   0.2343
  -5.000  -0.8267   0.01451   0.00973   0.0230   0.4019   0.2495
  -4.500  -0.7949   0.01283   0.00806   0.0239   0.3962   0.2599
  -4.000  -0.7655   0.01155   0.00679   0.0260   0.3854   0.2723
  -3.500  -0.7507   0.01030   0.00563   0.0306   0.3808   0.2912
  -3.000  -0.6855   0.01013   0.00540   0.0279   0.3697   0.2909
  -2.500  -0.6195   0.00967   0.00497   0.0246   0.3668   0.3014
  -2.000  -0.5488   0.00930   0.00463   0.0205   0.3598   0.3124
  -1.500  -0.4747   0.00882   0.00423   0.0156   0.3510   0.3334
  -1.000  -0.4023   0.00871   0.00412   0.0118   0.3468   0.3381
  -0.500  -0.3285   0.00852   0.00396   0.0076   0.3366   0.3537
  -0.000  -0.2552   0.00845   0.00389   0.0037   0.3321   0.3606
   0.500  -0.1819   0.00842   0.00385  -0.0003   0.3214   0.3684
   1.000  -0.1085   0.00840   0.00382  -0.0042   0.3148   0.3751
   1.500  -0.0349   0.00840   0.00381  -0.0082   0.3076   0.3824
   2.000   0.0381   0.00843   0.00384  -0.0119   0.3005   0.3871
   2.500   0.1133   0.00836   0.00381  -0.0162   0.2988   0.3983
   3.000   0.1854   0.00846   0.00388  -0.0197   0.2929   0.4012
   3.500   0.2592   0.00851   0.00393  -0.0237   0.2842   0.4113
   4.000   0.3322   0.00856   0.00399  -0.0275   0.2817   0.4163
   4.500   0.4034   0.00874   0.00412  -0.0309   0.2732   0.4214
   5.000   0.4763   0.00882   0.00421  -0.0347   0.2671   0.4287
   5.500   0.5477   0.00896   0.00433  -0.0381   0.2631   0.4322
   6.000   0.6176   0.00917   0.00450  -0.0413   0.2562   0.4353
   6.500   0.6901   0.00927   0.00462  -0.0450   0.2519   0.4453
   7.000   0.7602   0.00945   0.00479  -0.0482   0.2482   0.4487
   7.500   0.8290   0.00970   0.00501  -0.0513   0.2424   0.4546
   8.000   0.8991   0.00988   0.00520  -0.0545   0.2375   0.4613
   8.500   0.9678   0.01007   0.00539  -0.0575   0.2355   0.4645
   9.000   1.0340   0.01036   0.00565  -0.0601   0.2318   0.4657
   9.500   1.0986   0.01072   0.00598  -0.0624   0.2246   0.4700
  10.000   1.1655   0.01096   0.00624  -0.0652   0.2221   0.4760
  10.500   1.2309   0.01123   0.00652  -0.0677   0.2205   0.4807
  11.000   1.2895   0.01175   0.00701  -0.0691   0.2146   0.4852
  11.500   1.3492   0.01220   0.00747  -0.0708   0.2092   0.4926
  12.000   1.4071   0.01263   0.00792  -0.0722   0.2079   0.4966
  12.500   1.4395   0.01359   0.00888  -0.0696   0.2035   0.4983
  13.000   1.4706   0.01590   0.01122  -0.0695   0.1989   0.5032
  13.500   1.5079   0.01805   0.01341  -0.0706   0.1951   0.5095
  14.000   1.5434   0.02005   0.01545  -0.0710   0.1932   0.5137
  14.500   1.5589   0.02321   0.01861  -0.0700   0.1865   0.5188
  15.000   1.5874   0.02571   0.02116  -0.0702   0.1830   0.5266
  15.500   1.6123   0.02843   0.02393  -0.0702   0.1810   0.5302
  16.000   1.6248   0.03208   0.02758  -0.0696   0.1767   0.5315
  16.500   1.6464   0.03536   0.03092  -0.0699   0.1733   0.5391
  17.000   1.6684   0.03870   0.03431  -0.0704   0.1704   0.5436
  17.500   1.6873   0.04228   0.03794  -0.0707   0.1686   0.5464
  18.000   1.6936   0.04683   0.04252  -0.0706   0.1651   0.5478
  18.500   1.6855   0.05276   0.04851  -0.0703   0.1592   0.5529
  19.000   1.6840   0.05829   0.05409  -0.0705   0.1551   0.5581
  19.500   1.6848   0.06365   0.05951  -0.0709   0.1527   0.5620
  20.000   1.6889   0.06880   0.06473  -0.0715   0.1509   0.5642
  20.500   1.6829   0.07494   0.07093  -0.0721   0.1464   0.5703
  21.000   1.6862   0.08039   0.07647  -0.0732   0.1454   0.5761
  21.500   1.6736   0.08727   0.08341  -0.0741   0.1423   0.5793
  22.000   1.6613   0.09425   0.09044  -0.0753   0.1378   0.5807
  22.500   1.6774   0.09845   0.09469  -0.0769   0.1364   0.5856
  23.000   1.6799   0.10417   0.10051  -0.0787   0.1360   0.5921
  23.500   1.6742   0.11072   0.10714  -0.0808   0.1341   0.5959
  24.000   1.6345   0.12081   0.11724  -0.0833   0.1242   0.5977
  25.000   1.6471   0.13168   0.12825  -0.0888   0.1217   0.6100
