  
       XFOIL         Version 6.99
  
 Calculated polar for: Profile28_-12                                   
  
 1 1 Reynolds number fixed          Mach number fixed         
  
 xtrf =   1.000 (top)        1.000 (bottom)  
 Mach =   0.000     Re =     9.800 e 6     Ncrit =   9.000
  
   alpha    CL        CD       CDp       CM     Top_Xtr  Bot_Xtr
  ------ -------- --------- --------- -------- -------- --------
  -9.000  -1.6351   0.01097   0.00655   0.0698   0.5422   0.2029
  -8.500  -1.5760   0.01031   0.00593   0.0685   0.5272   0.2172
  -8.000  -1.5154   0.00972   0.00540   0.0671   0.5183   0.2316
  -7.500  -1.4536   0.00922   0.00495   0.0656   0.5034   0.2458
  -7.000  -1.3910   0.00880   0.00457   0.0640   0.4967   0.2582
  -6.500  -1.3274   0.00851   0.00429   0.0624   0.4825   0.2675
  -6.000  -1.2634   0.00828   0.00406   0.0608   0.4717   0.2737
  -5.500  -1.1992   0.00801   0.00381   0.0592   0.4606   0.2839
  -5.000  -1.1346   0.00787   0.00364   0.0576   0.4484   0.2885
  -4.500  -1.0699   0.00760   0.00341   0.0559   0.4401   0.3004
  -4.000  -1.0048   0.00750   0.00328   0.0542   0.4258   0.3057
  -3.500  -0.9397   0.00730   0.00310   0.0525   0.4194   0.3146
  -3.000  -0.8743   0.00722   0.00299   0.0508   0.4062   0.3195
  -2.500  -0.8089   0.00703   0.00284   0.0490   0.4005   0.3307
  -2.000  -0.7432   0.00699   0.00276   0.0473   0.3870   0.3348
  -1.500  -0.6776   0.00684   0.00264   0.0455   0.3824   0.3450
  -1.000  -0.6118   0.00681   0.00258   0.0438   0.3716   0.3492
  -0.500  -0.5460   0.00672   0.00250   0.0420   0.3647   0.3578
  -0.000  -0.4800   0.00667   0.00244   0.0402   0.3553   0.3645
   0.500  -0.4141   0.00660   0.00238   0.0384   0.3483   0.3734
   1.000  -0.3481   0.00657   0.00235   0.0365   0.3404   0.3798
   1.500  -0.2820   0.00658   0.00233   0.0348   0.3318   0.3841
   2.000  -0.2159   0.00654   0.00231   0.0329   0.3258   0.3921
   2.500  -0.1498   0.00657   0.00231   0.0311   0.3155   0.3967
   3.000  -0.0837   0.00658   0.00232   0.0292   0.3089   0.4044
   3.500  -0.0176   0.00660   0.00233   0.0274   0.2993   0.4113
   4.000   0.0485   0.00663   0.00235   0.0256   0.2967   0.4136
   4.500   0.1146   0.00668   0.00239   0.0237   0.2882   0.4225
   5.000   0.1806   0.00671   0.00243   0.0218   0.2811   0.4287
   5.500   0.2467   0.00683   0.00251   0.0199   0.2727   0.4320
   6.000   0.3126   0.00686   0.00256   0.0181   0.2675   0.4402
   6.500   0.3785   0.00692   0.00262   0.0162   0.2638   0.4454
   7.000   0.4444   0.00707   0.00274   0.0143   0.2544   0.4482
   7.500   0.5101   0.00712   0.00281   0.0124   0.2510   0.4567
   8.000   0.5758   0.00727   0.00294   0.0105   0.2439   0.4616
   8.500   0.6413   0.00739   0.00305   0.0087   0.2381   0.4638
   9.000   0.7068   0.00752   0.00318   0.0068   0.2337   0.4694
   9.500   0.7721   0.00769   0.00334   0.0049   0.2253   0.4767
  10.000   0.8373   0.00783   0.00348   0.0031   0.2216   0.4803
  10.500   0.9022   0.00810   0.00370   0.0011   0.2114   0.4821
  11.000   0.9670   0.00827   0.00388  -0.0007   0.2069   0.4907
  11.500   1.0315   0.00854   0.00412  -0.0026   0.1983   0.4962
  12.000   1.0957   0.00880   0.00436  -0.0045   0.1927   0.4986
  12.500   1.1596   0.00912   0.00465  -0.0064   0.1842   0.5013
  13.000   1.2229   0.00951   0.00500  -0.0083   0.1741   0.5094
  13.500   1.2858   0.00993   0.00539  -0.0102   0.1658   0.5142
  14.000   1.3484   0.01032   0.00576  -0.0120   0.1589   0.5167
  14.500   1.4102   0.01080   0.00620  -0.0138   0.1513   0.5187
  15.000   1.4709   0.01139   0.00676  -0.0156   0.1422   0.5264
  15.500   1.5313   0.01193   0.00729  -0.0174   0.1365   0.5324
  16.000   1.5908   0.01256   0.00789  -0.0192   0.1305   0.5355
  16.500   1.6482   0.01356   0.00885  -0.0214   0.1211   0.5388
  17.000   1.7037   0.01489   0.01015  -0.0241   0.1125   0.5463
  17.500   1.7531   0.01686   0.01211  -0.0274   0.1044   0.5514
  18.000   1.7693   0.02021   0.01549  -0.0280   0.0992   0.5542
  18.500   1.7737   0.02413   0.01943  -0.0271   0.0932   0.5553
  19.000   1.7763   0.02843   0.02375  -0.0266   0.0875   0.5615
  19.500   1.7701   0.03374   0.02912  -0.0264   0.0820   0.5669
  20.000   1.7721   0.03857   0.03400  -0.0266   0.0786   0.5711
  20.500   1.7613   0.04484   0.04033  -0.0271   0.0746   0.5735
  21.000   1.7540   0.05087   0.04641  -0.0278   0.0714   0.5746
  21.500   1.7355   0.05825   0.05387  -0.0288   0.0681   0.5778
  22.000   1.7181   0.06566   0.06137  -0.0301   0.0651   0.5833
  22.500   1.7024   0.07309   0.06888  -0.0317   0.0619   0.5876
  23.000   1.6819   0.08115   0.07702  -0.0335   0.0591   0.5910
  23.500   1.6652   0.08896   0.08491  -0.0356   0.0567   0.5932
  24.000   1.6468   0.09717   0.09319  -0.0380   0.0546   0.5944
  24.500   1.6155   0.10709   0.10321  -0.0411   0.0520   0.5960
  25.000   1.6140   0.11345   0.10964  -0.0436   0.0505   0.6022
