  
       XFOIL         Version 6.99
  
 Calculated polar for: Profile30                                       
  
 1 1 Reynolds number fixed          Mach number fixed         
  
 xtrf =   1.000 (top)        1.000 (bottom)  
 Mach =   0.000     Re =     9.800 e 6     Ncrit =   9.000
  
   alpha    CL        CD       CDp       CM     Top_Xtr  Bot_Xtr
  ------ -------- --------- --------- -------- -------- --------
  -9.000  -0.8863   0.00807   0.00410  -0.0492   0.5170   0.2587
  -8.500  -0.8191   0.00772   0.00374  -0.0520   0.5011   0.2711
  -8.000  -0.7530   0.00752   0.00353  -0.0542   0.4919   0.2775
  -7.500  -0.6866   0.00729   0.00329  -0.0566   0.4794   0.2856
  -7.000  -0.6204   0.00711   0.00309  -0.0588   0.4670   0.2947
  -6.500  -0.5546   0.00698   0.00294  -0.0609   0.4560   0.3006
  -6.000  -0.4885   0.00681   0.00276  -0.0631   0.4426   0.3114
  -5.500  -0.4229   0.00675   0.00266  -0.0650   0.4305   0.3165
  -5.000  -0.3571   0.00661   0.00252  -0.0670   0.4203   0.3261
  -4.500  -0.2916   0.00656   0.00244  -0.0689   0.4070   0.3330
  -4.000  -0.2260   0.00647   0.00234  -0.0708   0.3987   0.3418
  -3.500  -0.1605   0.00643   0.00228  -0.0726   0.3900   0.3481
  -3.000  -0.0951   0.00638   0.00222  -0.0744   0.3824   0.3553
  -2.500  -0.0299   0.00638   0.00219  -0.0761   0.3724   0.3597
  -2.000   0.0354   0.00635   0.00215  -0.0779   0.3631   0.3698
  -1.500   0.1006   0.00635   0.00213  -0.0795   0.3554   0.3749
  -1.000   0.1656   0.00636   0.00212  -0.0812   0.3455   0.3833
  -0.500   0.2305   0.00639   0.00213  -0.0829   0.3374   0.3873
  -0.000   0.2953   0.00644   0.00215  -0.0845   0.3260   0.3963
   0.500   0.3601   0.00646   0.00217  -0.0861   0.3211   0.4015
   1.000   0.4246   0.00656   0.00222  -0.0876   0.3103   0.4059
   1.500   0.4892   0.00658   0.00225  -0.0891   0.3058   0.4128
   2.000   0.5534   0.00669   0.00232  -0.0906   0.2978   0.4167
   2.500   0.6177   0.00675   0.00237  -0.0921   0.2925   0.4223
   3.000   0.6815   0.00687   0.00246  -0.0935   0.2818   0.4297
   3.500   0.7453   0.00698   0.00255  -0.0949   0.2753   0.4328
   4.000   0.8088   0.00712   0.00266  -0.0962   0.2670   0.4403
   4.500   0.8724   0.00720   0.00275  -0.0975   0.2630   0.4454
   5.000   0.9353   0.00739   0.00290  -0.0988   0.2543   0.4481
   5.500   0.9983   0.00751   0.00301  -0.1000   0.2488   0.4553
   6.000   1.0607   0.00769   0.00317  -0.1011   0.2426   0.4612
   6.500   1.1231   0.00786   0.00332  -0.1023   0.2363   0.4637
   7.000   1.1846   0.00808   0.00351  -0.1033   0.2287   0.4701
   7.500   1.2462   0.00826   0.00369  -0.1043   0.2221   0.4759
   8.000   1.3066   0.00856   0.00393  -0.1051   0.2129   0.4787
   8.500   1.3671   0.00880   0.00414  -0.1059   0.2067   0.4804
   9.000   1.4263   0.00912   0.00443  -0.1066   0.1969   0.4872
   9.500   1.4844   0.00949   0.00475  -0.1071   0.1863   0.4925
  10.000   1.5418   0.00988   0.00510  -0.1074   0.1779   0.4952
  10.500   1.5980   0.01031   0.00547  -0.1076   0.1684   0.4990
  11.000   1.6522   0.01082   0.00593  -0.1075   0.1575   0.5058
  11.500   1.7074   0.01120   0.00630  -0.1075   0.1518   0.5100
  12.000   1.7587   0.01176   0.00681  -0.1069   0.1426   0.5119
  12.500   1.8078   0.01237   0.00737  -0.1060   0.1342   0.5157
  13.000   1.8540   0.01300   0.00798  -0.1047   0.1271   0.5223
  13.500   1.8939   0.01376   0.00871  -0.1023   0.1185   0.5262
  14.000   1.9130   0.01491   0.00981  -0.0966   0.1085   0.5281
  14.500   1.9334   0.01648   0.01135  -0.0922   0.0993   0.5290
  15.000   1.9543   0.01842   0.01328  -0.0888   0.0915   0.5348
  15.500   1.9738   0.02078   0.01565  -0.0860   0.0849   0.5403
  16.000   1.9922   0.02349   0.01838  -0.0839   0.0802   0.5442
  16.500   2.0062   0.02675   0.02167  -0.0819   0.0751   0.5458
  17.000   2.0157   0.03058   0.02553  -0.0802   0.0707   0.5490
  17.500   2.0155   0.03536   0.03036  -0.0785   0.0661   0.5546
  18.000   2.0139   0.04055   0.03563  -0.0773   0.0632   0.5585
  18.500   2.0060   0.04661   0.04176  -0.0764   0.0599   0.5611
  19.000   1.9899   0.05368   0.04891  -0.0758   0.0570   0.5626
  19.500   1.9774   0.06054   0.05585  -0.0756   0.0545   0.5635
  20.000   1.9533   0.06885   0.06426  -0.0757   0.0519   0.5674
  20.500   1.9294   0.07731   0.07284  -0.0763   0.0500   0.5720
  21.000   1.9054   0.08592   0.08155  -0.0772   0.0477   0.5752
  21.500   1.8772   0.09521   0.09096  -0.0786   0.0459   0.5776
  22.000   1.8546   0.10393   0.09978  -0.0803   0.0442   0.5795
  22.500   1.8319   0.11279   0.10872  -0.0824   0.0420   0.5806
  23.000   1.8165   0.12088   0.11689  -0.0848   0.0407   0.5813
  23.500   1.7962   0.12963   0.12573  -0.0878   0.0387   0.5849
  24.000   1.7849   0.13738   0.13357  -0.0909   0.0374   0.5895
  24.500   1.7710   0.14554   0.14180  -0.0946   0.0358   0.5929
  25.000   1.7604   0.15325   0.14959  -0.0985   0.0342   0.5957
